[TITLE]

[JUNCTIONS]
 J511                                105.0800
 J411                                  8.9500
 J414                                 34.3600
 J415                                 65.0000
 J416                                 42.6000
 J417                                 37.3800
 J418                                 37.3900
 J419                                 40.5000
 J310                                 51.8400
 J311                                 55.9500
 J312                                 68.4800
 J313                                 67.6600
 J314                                 14.9400
 J315                                 16.0300
 J316                                 12.9800
 J318                                 53.6700
 J319                                 39.2900
 J210                                  7.0100
 J211                                 11.2700
 J212                                  7.8700
 J214                                  8.6700
 J217                                 10.9800
 J218                                  7.6800
 J219                                 52.0000
 J110                                 15.9200
 J420                                 39.9900
 J421                                 37.0900
 J422                                 38.8100
 J1153                                22.1400
 J1154                                14.6100
 J1155                                15.5400
 J425                                 64.4200
 J426                                 72.7100
 J1157                                22.2100
 J427                                 67.6500
 J1158                                28.2500
 J428                                 16.2000
 J429                                 12.5600
 J320                                 46.7300
 J321                                 44.5900
 J322                                 48.0200
 J324                                 42.3800
 J1056                                 7.6400
 J327                                 49.6800
 J1058                                13.5800
 J328                                 45.6900
 J329                                 44.0500
 J220                                 60.0000
 J221                                 77.0700
 J225                                 13.3300
 J226                                 11.1000
 J50                                  71.8000
 J51                                  72.4200
 J53                                  80.0000
 J54                                  80.0000
 J128                                 85.2600
 J55                                  71.0000
 J129                                 62.8500
 J56                                  72.0000
 J57                                  59.0000
 J58                                  76.0000
 J59                                  57.0000
 J1160                                24.9100
 J1161                                25.2500
 J431                                 16.9000
 J432                                 19.8800
 J433                                 27.3500
 J434                                 16.4800
 J435                                 12.1500
 J436                                 17.6800
 J438                                 10.4300
 J1169                                55.4200
 J439                                 17.7800
 J330                                 58.2500
 J331                                 59.2600
 J332                                 36.0000
 J333                                 25.7000
 J334                                 29.2800
 J335                                 25.0800
 J336                                 23.8100
 J337                                 22.1100
 J231                                 71.9000
 J232                                 69.8100
 J233                                 74.2300
 J234                                 64.0600
 J236                                 58.0000
 J237                                 73.1400
 J130                                 54.5200
 J131                                 88.0500
 J132                                 74.5500
 J133                                 69.5800
 J60                                  55.0000
 J134                                 80.7000
 J135                                 70.0000
 J62                                  60.0000
 J64                                  80.0000
 J65                                  80.0000
 J66                                  72.0000
 J67                                  79.0000
 J68                                  73.0000
 J69                                  71.0000
 J1170                                54.5400
 J441                                 69.0000
 J444                                 29.4600
 J341                                 14.8900
 J344                                 54.7000
 J345                                 49.9700
 J347                                 54.4000
 J348                                 62.1800
 J349                                 36.4100
 J241                                 70.0000
 J242                                 65.0000
 J243                                 60.0000
 J244                                 70.0000
 J245                                 71.0000
 J246                                 55.0000
 J247                                 57.0000
 J248                                 54.0000
 J249                                 50.0000
 J142                                  5.5300
 J143                                  6.3000
 J70                                  70.0000
 J144                                  4.1700
 J71                                  77.0000
 J72                                  75.0000
 J73                                  80.0000
 J74                                  75.0000
 J76                                  70.0000
 J77                                  76.0000
 J78                                  60.5600
 J350                                 33.8200
 J351                                 25.5100
 J352                                 47.5500
 J353                                 22.6400
 J354                                 18.6800
 J355                                 28.8700
 J358                                 22.3000
 J359                                 17.5700
 J250                                 67.0000
 J251                                 75.1900
 J252                                 83.8200
 J253                                 74.6900
 J254                                 74.5900
 J257                                 80.0000
 J154                                 43.6900
 J155                                 44.4100
 J82                                  70.8700
 J156                                 46.1600
 J83                                  61.0700
 J84                                  43.8200
 J85                                  45.0000
 J159                                 37.4100
 J86                                  50.0000
 J87                                  42.6300
 J89                                  68.2900
 J360                                 20.7100
 J361                                 26.6700
 J362                                 43.6600
 J363                                 72.2300
 J364                                 65.0000
 J365                                 29.8300
 J366                                 14.4600
 J1208                                42.7400
 J367                                 13.6000
 J369                                 20.2700
 J160                                 43.6900
 J161                                 22.8100
 J162                                 36.8800
 J163                                 16.2000
 J164                                 17.3400
 J91                                  64.0900
 J165                                 16.6900
 J166                                 23.9500
 J167                                 23.9100
 J94                                  30.7500
 J95                                  22.5600
 J96                                  30.0000
 J97                                  34.1900
 J976                                  6.3000
 J571                                 77.1100
 J572                                 76.4000
 J573                                 81.6200
 J574                                 67.3600
 J575                                 75.2700
 J576                                 80.8000
 J370                                 20.4600
 J371                                 68.8100
 J372                                 23.2000
 J373                                 27.2200
 J374                                 13.7000
 J375                                 22.7200
 J376                                 12.1800
 J377                                 13.1200
 J1219                                14.4800
 J379                                 10.2500
 J171                                  8.8100
 J172                                  6.2500
 J173                                 13.0000
 J174                                  6.1100
 J175                                  6.8400
 J177                                 13.1400
 J179                                 15.0100
 J580                                105.0800
 J486                                 86.1100
 J487                                 79.0000
 J488                                 89.1600
 J489                                 85.0200
 J381                                 36.0200
 J1223                                 3.4800
 J382                                 70.4200
 J384                                 42.5100
 J385                                 76.6000
 J180                                  8.7700
 J181                                 10.9400
 J1024                                 5.8300
 J183                                 13.2800
 J1025                                 8.6100
 J186                                  9.3800
 J187                                  9.8100
 J188                                  8.5100
 J189                                  7.5800
 J490                                 95.8400
 J491                                 76.9300
 J492                                 94.6700
 J493                                 77.6200
 J494                                 93.7600
 J495                                 91.1500
 J496                                 91.0000
 J497                                105.6300
 J498                                 90.1200
 J500                                 75.5200
 J499                                 72.2400
 J501                                 80.9700
 J502                                 80.9900
 J503                                 99.6500
 J504                                 66.7100
 J394                                 70.5300
 J509                                 99.9400
 J399                                 75.0000
 J401                                 70.0000
 J406                                 71.7400
 J295                                 56.4200
 J407                                 68.0000
 J296                                 30.9100
 J408                                  7.9300
 J297                                 79.0500
 J298                                 74.4600
 J191                                  5.7600
 J303                                 50.4200
 J192                                 12.4000
 J193                                 12.9900
 J305                                 47.1100
 J194                                 13.4600
 J195                                 15.3900
 J196                                 13.3500
 J308                                 33.2400
 J198                                 18.5400
 J200                                 15.7500
 J199                                 16.2600
 J201                                 35.8600
 J202                                 10.4100
 J203                                 11.0300
 J204                                 21.5100
 J205                                 16.6600
 J206                                 14.1200
 J207                                 18.8600
 J208                                 11.2500
 J101                                 28.6500
 J102                                 36.9600
 J109                                 17.4700
 J1                                   16.8200
 J2                                   11.9700
 J3                                   29.0200
 J4                                   20.8800
 J5                                   22.7500
 J6                                   15.2500
 J7                                   24.9100
 J8                                   31.1700
 J9                                   31.8900
 J10                                  14.6200
 J11                                  18.4300
 J12                                  29.2700
 J13                                  32.0400
 J14                                  37.9100
 J15                                 102.8400
 J16                                  88.8900
 J17                                  82.7500
 J18                                  84.9600
 J19                                  90.9400
 J20                                  80.0000
 J21                                  80.0000
 J22                                  82.7400
 J23                                  75.9600
 J25                                  94.1300
 J26                                  76.3500
 J27                                  82.0800
 J28                                  45.0000
 J29                                  49.0000
 J30                                  72.0100
 J31                                  69.7800
 J32                                  45.0000
 J33                                  48.0000
 J34                                  50.0000
 J35                                  67.7800
 J36                                  51.0800
 J37                                  66.1900
 J38                                  47.0000
 J24                                  34.5300
 J39                                  45.8800
 J40                                  12.8000
 J123                                 38.4100
 J140                                 39.9400
 J141                                 41.4500
 J157                                 31.4900
 J158                                 25.8800
 J168                                 40.2100
 J170                                 46.8700
 J176                                 50.6400
 J178                                 58.8700
 J184                                 56.0900
 J185                                 43.7100
 J190                                 58.4900
 J197                                 41.8600
 J213                                 52.0700
 J215                                 75.7600
 J216                                 53.0600
 J227                                 52.8900
 J238                                 44.1600
 J239                                 43.4900
 J255                                 35.3100
 J256                                 40.0000
 J258                                 51.2400
 J260                                 32.5300
 J265                                 50.8700
 J266                                 39.8300
 J267                                 22.3100
 J61                                  72.0000
 J92                                  72.0000
 J268                                 69.6800
 J278                                104.2900
 J281                                 83.7200
 J283                                 94.0600
 J284                                 77.3800
 J136                                 81.8000
 J137                                  9.1100
 J145                                 47.4600
 J118                                 75.0000
 J52                                  54.7000
 J81                                  50.0000
 J88                                  45.0000
 J90                                  84.0000
 J93                                  65.0000
 J147                                 68.0000
 J148                                 50.0000
 J149                                 40.0000
 J150                                 60.0000
 J151                                 60.0000
 J152                                 32.0000
 J153                                 60.0000
 J169                                 42.0000
 J182                                 40.0000
 J222                                 32.0000
 J224                                 37.0000
 J230                                 30.0000
 J235                                 53.0000
 J240                                 87.0000
 J269                                 56.0000
 J273                                 56.0000
 J274                                 56.0000
 J276                                 56.0000
 J280                                 56.0000
 J285                                 56.0000
 J287                                 40.0000
 J288                                 40.0000
 J289                                 40.0000
 J290                                 40.0000
 J291                                 65.0000
 J292                                 40.0000
 J299                                 40.0000
 J300                                 40.0000
 J301                                 44.0000
 J302                                 44.0000
 J304                                 44.0000
 J306                                 44.0000
 J307                                 44.0000
 J309                                 44.0000
 J317                                 44.0000
 J323                                 44.0000
 N1                                   46.5000
 N2                                   45.2000
 N3                                   45.9000
 N4                                   45.5000
 N5                                   45.1000
 N6                                   46.7000
 N7                                   46.3000
 N8                                   45.9000
 N9                                   45.0000
 N10                                  45.1000

[RESERVOIRS]
 R1                                   59.0000 

[TANKS]
 T3                                  112.9000       3.3750       0.0000       6.7500      13.7300       0.0000 
 T1                                   71.5000       3.2500       0.0000       6.5000      31.3000       0.0000 
 T7                                  102.0000       2.5000       0.0000       5.0000       7.1400       0.0000 
 T6                                  101.5000       2.7500       0.0000       5.5000       8.3300       0.0000 
 T5                                  105.8000       2.2500       0.0000       4.5000      11.8900       0.0000 
 T2                                   65.0000       2.9500       0.0000       5.9000      23.2317       0.0000 
 T4                                  132.5000       2.3500       0.0000       4.7000      11.6400       0.0000 

[PIPES]
 P1                              J175                            J174                                 52.9000     203.0000      72.4549       0.0000 
 P10                             J335                            J336                                 79.2300      76.0000     108.0095       0.0000 
 P100                            J159                            J160                                107.8800     406.0000      76.5142       0.0000 
 P1000                           J341                            J204                                109.2700     203.0000      76.9461       0.0000 
 P101                            J166                            J162                                243.3700     254.0000      84.2085       0.0000 
 P1016                           J22                             J233                                164.7700     305.0000      85.2382       0.0000 
 P102                            J109                            J408                               1280.3000     508.0000      92.9472       0.0000 
 P1022                           J281                            J283                                200.7600     102.0000      99.5808       0.0000 
 P1023                           J278                            J283                                136.3400     102.0000      95.6885       0.0000 
 P1024                           J580                            J278                                375.6200     102.0000      89.6207       0.0000 
 P1025                           J575                            J132                                 39.1800      76.0000      97.7766       0.0000 
 P1026                           J132                            J493                                 45.6100      76.0000      88.4504       0.0000 
 P1027                           J486                            J488                                 82.3200      51.0000      92.0106       0.0000 
 P1028                           J489                            J486                                  9.5700      51.0000      86.9934       0.0000 
 P1029                           J489                            J492                                122.6200      76.0000      91.3396       0.0000 
 P103                            J2                              J1219                                35.9800     254.0000      79.3710       0.0000 
 P1030                           J493                            J489                                 95.2500      76.0000     104.6083       0.0000 
 P1031                           J494                            J490                                188.2800     152.0000      84.3741       0.0000 
 P1032                           J490                            J492                                143.2900     152.0000      98.4310       0.0000 
 P1033                           J492                            J131                                128.7900     152.0000      84.6894       0.0000 
 P1034                           J254                            J253                                 52.8700     203.0000      97.4185       0.0000 
 P1035                           J253                            J128                                122.4700     152.0000      97.7581       0.0000 
 P1036                           J131                            J128                                 83.3300     203.0000      74.2979       0.0000 
 P1039                           J573                            J128                                121.3800     203.0000      92.1423       0.0000 
 P104                            J166                            J167                                 33.1100     203.0000      99.8866       0.0000 
 P1040                           J136                            J573                                 29.4500     152.0000      94.6888       0.0000 
 P1041                           J136                            J129                                307.5400     102.0000     112.5082       0.0000 
 P1042                           J89                             J573                                 84.5400     152.0000      76.1502       0.0000 
 P1044                           T5                              J64                                  65.8000     203.0000     100.2182       0.0000 
 P1045                           J64                             J53                                  68.6300     203.0000     118.8214       0.0000 
 P106                            J102                            J101                                270.3800     102.0000      63.5511       0.0000 
 P107                            J171                            J172                                357.0000     203.0000      80.5098       0.0000 
 P108                            J101                            J109                                183.5300     203.0000      78.7205       0.0000 
 P109                            J175                            J172                                218.5200     203.0000      76.8934       0.0000 
 P11                             J318                            J235                                 83.4500     101.6000      96.8344       0.0000 
 P110                            J179                            J177                                425.8300     508.0000      98.9941       0.0000 
 P111                            J976                            J143                                126.3600     152.0000      72.4117       0.0000 
 P112                            J142                            J976                                646.9800     305.0000      68.6009       0.0000 
 P113                            J137                            J181                                310.7300     152.0000      85.3538       0.0000 
 P115                            J408                            J435                                 99.8800     102.0000      91.2315       0.0000 
 P116                            J186                            J187                                204.5400     152.0000      93.4739       0.0000 
 P117                            J435                            J431                                104.0000     102.0000      67.9620       0.0000 
 P118                            J431                            J432                                115.9100     102.0000      84.6653       0.0000 
 P119                            J188                            J189                                 64.8800     305.0000      78.1412       0.0000 
 P12                             J208                            J337                                 85.2400     406.0000      89.6626       0.0000 
 P120                            J432                            J1160                                91.4000     102.0000      88.3890       0.0000 
 P121                            J192                            J193                                 42.2300     152.0000     100.3676       0.0000 
 P122                            J173                            J194                                 45.0600     305.0000      78.9780       0.0000 
 P123                            J1160                           J3                                   51.2100     152.0000      61.0614       0.0000 
 P124                            J376                            J225                                 99.0900     102.0000      78.8303       0.0000 
 P125                            J163                            J196                                193.3500     508.0000      84.7389       0.0000 
 P126                            J225                            J316                                109.6000      76.0000      89.7379       0.0000 
 P127                            J316                            J40                                  87.2200     102.0000      73.6774       0.0000 
 P128                            J40                             J374                                165.6300     102.0000      90.9483       0.0000 
 P129                            J374                            J377                                 79.5900     102.0000      78.0662       0.0000 
 P13                             J337                            J24                                  62.5600     406.0000      83.0438       0.0000 
 P130                            J376                            J226                                 56.7900      76.0000      70.7072       0.0000 
 P131                            J206                            J207                                 86.5000      76.0000      74.7267       0.0000 
 P132                            J226                            J379                                 67.3500      76.0000      88.5417       0.0000 
 P134                            J4                              J5                                   68.7900      76.0000      78.5680       0.0000 
 P136                            J5                              J431                                241.7700     102.0000      75.7332       0.0000 
 P138                            J203                            J217                                 19.2800     254.0000      72.4853       0.0000 
 P139                            J208                            J211                                 73.6600     406.0000      68.7185       0.0000 
 P14                             J24                             J39                                 151.3900     406.0000      72.0091       0.0000 
 P140                            J219                            J220                                222.3000     102.0000     107.8347       0.0000 
 P141                            J221                            J51                                 169.9400     102.0000     103.7881       0.0000 
 P142                            J37                             J93                                  16.6100     152.4000      85.3907       0.0000 
 P144                            J382                            T6                                  130.7900     102.0000     120.0000       0.0000 
 P147                            J232                            J231                                 60.0800     203.0000      92.8370       0.0000 
 P148                            J233                            J234                                561.6900     305.0000      96.4394       0.0000 
 P15                             J39                             T1                                  395.2900     406.0000      90.4830       0.0000 
 P150                            J82                             J50                                  93.1900     152.0000     103.1527       0.0000 