[TITLE]


[JUNCTIONS]
;ID              	Elev        	Demand      	Pattern         
 J511            	105.0800    	1.763868    	DMA2_pat        	;
 J411            	8.9500      	1.333560    	DMA1_pat        	;
 J414            	34.3600     	1.448797    	DMA1_pat        	;
 J415            	65.0000     	0.000000    	                	;
 J416            	42.6000     	0.000000    	                	;
 J417            	37.3800     	1.936850    	DMA1_pat        	;
 J418            	37.3900     	0.000000    	                	;
 J419            	40.5000     	0.000000    	                	;
 J310            	51.8400     	2.036225    	DMA4_pat        	;
 J311            	55.9500     	1.772595    	DMA4_pat        	;
 J312            	68.4800     	0.113382    	DMA4_pat        	;
 J313            	67.6600     	1.035083    	DMA4_pat        	;
 J314            	14.9400     	2.156549    	DMA1_pat        	;
 J315            	16.0300     	1.976200    	DMA1_pat        	;
 J316            	12.9800     	0.933840    	DMA1_pat        	;
 J318            	53.6700     	2.404883    	DMA4_pat        	;
 J319            	39.2900     	2.178615    	DMA4_pat        	;
 J210            	7.0100      	0.692308    	DMA1_pat        	;
 J211            	11.2700     	2.373893    	DMA1_pat        	;
 J212            	7.8700      	0.910047    	DMA1_pat        	;
 J214            	8.6700      	1.312171    	DMA1_pat        	;
 J217            	10.9800     	1.917780    	DMA1_pat        	;
 J218            	7.6800      	0.133761    	DMA1_pat        	;
 J219            	52.0000     	1.481145    	DMA5_pat        	;
 J110            	15.9200     	1.171750    	DMA1_pat        	;
 J420            	39.9900     	0.000000    	                	;
 J421            	37.0900     	1.556742    	DMA1_pat        	;
 J422            	38.8100     	0.000000    	                	;
 J1153           	22.1400     	0.659483    	DMA1_pat        	;
 J1154           	14.6100     	0.698355    	DMA1_pat        	;
 J1155           	15.5400     	2.074505    	DMA1_pat        	;
 J425            	64.4200     	0.000000    	                	;
 J426            	72.7100     	0.000000    	                	;
 J1157           	22.2100     	2.465234    	DMA1_pat        	;
 J427            	67.6500     	0.000000    	                	;
 J1158           	28.2500     	0.567165    	DMA1_pat        	;
 J428            	16.2000     	1.737789    	DMA1_pat        	;
 J429            	12.5600     	2.450009    	DMA1_pat        	;
 J320            	46.7300     	0.609828    	DMA4_pat        	;
 J321            	44.5900     	1.334682    	DMA4_pat        	;
 J322            	48.0200     	0.265925    	DMA4_pat        	;
 J324            	42.3800     	2.498536    	DMA4_pat        	;
 J1056           	7.6400      	1.690440    	DMA1_pat        	;
 J327            	49.6800     	0.039260    	DMA4_pat        	;
 J1058           	13.5800     	1.437960    	DMA1_pat        	;
 J328            	45.6900     	0.250131    	DMA4_pat        	;
 J329            	44.0500     	0.257557    	DMA4_pat        	;
 J220            	60.0000     	1.997211    	DMA5_pat        	;
 J221            	77.0700     	0.711201    	DMA4_pat        	;
 J225            	13.3300     	0.114123    	DMA1_pat        	;
 J226            	11.1000     	0.739432    	DMA1_pat        	;
 J50             	71.8000     	0.955026    	DMA4_pat        	;
 J51             	72.4200     	0.752427    	DMA4_pat        	;
 J53             	80.0000     	2.371428    	DMA5_pat        	;
 J54             	80.0000     	2.449574    	DMA5_pat        	;
 J128            	85.2600     	1.003435    	DMA2_pat        	;
 J55             	71.0000     	0.695700    	DMA5_pat        	;
 J129            	62.8500     	0.401103    	DMA2_pat        	;
 J56             	72.0000     	0.407054    	DMA5_pat        	;
 J57             	59.0000     	1.616467    	DMA5_pat        	;
 J58             	76.0000     	1.025183    	DMA5_pat        	;
 J59             	57.0000     	1.031918    	DMA5_pat        	;
 J1160           	24.9100     	1.781826    	DMA1_pat        	;
 J1161           	25.2500     	0.815515    	DMA1_pat        	;
 J431            	16.9000     	1.582947    	DMA1_pat        	;
 J432            	19.8800     	0.518903    	DMA1_pat        	;
 J433            	27.3500     	0.465033    	DMA1_pat        	;
 J434            	16.4800     	1.458398    	DMA1_pat        	;
 J435            	12.1500     	0.201787    	DMA1_pat        	;
 J436            	17.6800     	1.144929    	DMA1_pat        	;
 J438            	10.4300     	2.264325    	DMA1_pat        	;
 J1169           	55.4200     	0.653421    	DMA3_pat        	;
 J439            	17.7800     	1.963030    	DMA1_pat        	;
 J330            	58.2500     	0.947256    	DMA4_pat        	;
 J331            	59.2600     	0.724163    	DMA4_pat        	;
 J332            	36.0000     	1.986000    	DMA1_pat        	;
 J333            	25.7000     	1.579356    	DMA1_pat        	;
 J334            	29.2800     	1.569105    	DMA1_pat        	;
 J335            	25.0800     	1.071141    	DMA1_pat        	;
 J336            	23.8100     	0.244935    	DMA1_pat        	;
 J337            	22.1100     	1.402600    	DMA1_pat        	;
 J231            	71.9000     	1.736214    	DMA4_pat        	;
 J232            	69.8100     	2.284295    	DMA4_pat        	;
 J233            	74.2300     	0.000000    	                	;
 J234            	64.0600     	0.045000    	DMA2_pat        	;
 J236            	58.0000     	1.358401    	DMA5_pat        	;
 J237            	73.1400     	2.290410    	DMA5_pat        	;
 J130            	54.5200     	1.075653    	DMA2_pat        	;
 J131            	88.0500     	1.694870    	DMA2_pat        	;
 J132            	74.5500     	1.256135    	DMA2_pat        	;
 J133            	69.5800     	1.284344    	DMA2_pat        	;
 J60             	55.0000     	1.157450    	DMA5_pat        	;
 J134            	80.7000     	0.883681    	DMA2_pat        	;
 J135            	70.0000     	1.012086    	DMA2_pat        	;
 J62             	60.0000     	0.674330    	DMA5_pat        	;
 J64             	80.0000     	0.138984    	DMA5_pat        	;
 J65             	80.0000     	0.609614    	DMA5_pat        	;
 J66             	72.0000     	2.447695    	DMA5_pat        	;
 J67             	79.0000     	0.152290    	DMA5_pat        	;
 J68             	73.0000     	0.975729    	DMA5_pat        	;
 J69             	71.0000     	0.912488    	DMA5_pat        	;
 J1170           	54.5400     	1.224736    	DMA3_pat        	;
 J441            	69.0000     	0.000000    	                	;
 J444            	29.4600     	1.186148    	DMA1_pat        	;
 J341            	14.8900     	0.643169    	DMA1_pat        	;
 J344            	54.7000     	1.571880    	DMA3_pat        	;
 J345            	49.9700     	1.355175    	DMA3_pat        	;
 J347            	54.4000     	0.390756    	DMA3_pat        	;
 J348            	62.1800     	2.346363    	DMA4_pat        	;
 J349            	36.4100     	1.636248    	DMA4_pat        	;
 J241            	70.0000     	1.265219    	DMA5_pat        	;
 J242            	65.0000     	0.976179    	DMA5_pat        	;
 J243            	60.0000     	0.268439    	DMA5_pat        	;
 J244            	70.0000     	1.959989    	DMA5_pat        	;
 J245            	71.0000     	1.149102    	DMA5_pat        	;
 J246            	55.0000     	1.884220    	DMA5_pat        	;
 J247            	57.0000     	1.490236    	DMA5_pat        	;
 J248            	54.0000     	2.081826    	DMA5_pat        	;
 J249            	50.0000     	0.046896    	DMA5_pat        	;
 J142            	5.5300      	0.525922    	DMA1_pat        	;
 J143            	6.3000      	0.184883    	DMA1_pat        	;
 J70             	70.0000     	0.263633    	DMA5_pat        	;
 J144            	4.1700      	0.829236    	DMA1_pat        	;
 J71             	77.0000     	0.320625    	DMA5_pat        	;
 J72             	75.0000     	0.000603    	DMA5_pat        	;
 J73             	80.0000     	1.341985    	DMA5_pat        	;
 J74             	75.0000     	1.642638    	DMA5_pat        	;
 J76             	70.0000     	1.360035    	DMA5_pat        	;
 J77             	76.0000     	2.068530    	DMA5_pat        	;
 J78             	60.5600     	0.204734    	DMA4_pat        	;
 J350            	33.8200     	0.479806    	DMA3_pat        	;
 J351            	25.5100     	1.697283    	DMA4_pat        	;
 J352            	47.5500     	1.135520    	DMA4_pat        	;
 J353            	22.6400     	0.892559    	DMA4_pat        	;
 J354            	18.6800     	0.374952    	DMA4_pat        	;
 J355            	28.8700     	1.760990    	DMA4_pat        	;
 J358            	22.3000     	2.321965    	DMA4_pat        	;
 J359            	17.5700     	1.325530    	DMA4_pat        	;
 J250            	67.0000     	0.224103    	DMA5_pat        	;
 J251            	75.1900     	1.894323    	DMA2_pat        	;
 J252            	83.8200     	1.004605    	DMA2_pat        	;
 J253            	74.6900     	1.154686    	DMA2_pat        	;
 J254            	74.5900     	1.230414    	DMA2_pat        	;
 J257            	80.0000     	0.519069    	DMA2_pat        	;
 J154            	43.6900     	0.824340    	DMA1_pat        	;
 J155            	44.4100     	0.238573    	DMA1_pat        	;
 J82             	70.8700     	1.474482    	DMA4_pat        	;
 J156            	46.1600     	0.424683    	DMA1_pat        	;
 J83             	61.0700     	2.319042    	DMA4_pat        	;
 J84             	43.8200     	0.244824    	DMA5_pat        	;
 J85             	45.0000     	1.109656    	DMA5_pat        	;
 J159            	37.4100     	0.682367    	DMA1_pat        	;
 J86             	50.0000     	2.181367    	DMA5_pat        	;
 J87             	42.6300     	1.876719    	DMA5_pat        	;
 J89             	68.2900     	0.682356    	DMA2_pat        	;
 J360            	20.7100     	1.684118    	DMA4_pat        	;
 J361            	26.6700     	0.641572    	DMA4_pat        	;
 J362            	43.6600     	0.224742    	DMA4_pat        	;
 J363            	72.2300     	0.000000    	                	;
 J364            	65.0000     	0.000000    	                	;
 J365            	29.8300     	1.975323    	DMA1_pat        	;
 J366            	14.4600     	0.743145    	DMA1_pat        	;
 J1208           	42.7400     	0.588205    	DMA4_pat        	;
 J367            	13.6000     	1.201186    	DMA1_pat        	;
 J369            	20.2700     	0.636504    	DMA1_pat        	;
 J160            	43.6900     	0.851517    	DMA1_pat        	;
 J161            	22.8100     	0.112335    	DMA1_pat        	;
 J162            	36.8800     	1.206070    	DMA1_pat        	;
 J163            	16.2000     	0.515043    	DMA1_pat        	;
 J164            	17.3400     	2.161336    	DMA1_pat        	;
 J91             	64.0900     	1.471572    	DMA2_pat        	;
 J165            	16.6900     	1.887271    	DMA1_pat        	;
 J166            	23.9500     	2.319708    	DMA1_pat        	;
 J167            	23.9100     	0.827542    	DMA1_pat        	;
 J94             	30.7500     	1.357353    	DMA3_pat        	;
 J95             	22.5600     	0.201728    	DMA1_pat        	;
 J96             	30.0000     	1.585930    	DMA1_pat        	;
 J97             	34.1900     	1.025092    	DMA1_pat        	;
 J976            	6.3000      	2.401058    	DMA1_pat        	;
 J571            	77.1100     	0.286559    	DMA2_pat        	;
 J572            	76.4000     	2.308613    	DMA2_pat        	;
 J573            	81.6200     	1.550525    	DMA2_pat        	;
 J574            	67.3600     	0.869316    	DMA2_pat        	;
 J575            	75.2700     	0.373115    	DMA2_pat        	;
 J576            	80.8000     	1.199946    	DMA2_pat        	;
 J370            	20.4600     	0.548523    	DMA1_pat        	;
 J371            	68.8100     	0.000000    	                	;
 J372            	23.2000     	0.326052    	DMA1_pat        	;
 J373            	27.2200     	0.072215    	DMA1_pat        	;
 J374            	13.7000     	0.863480    	DMA1_pat        	;
 J375            	22.7200     	1.369171    	DMA1_pat        	;
 J376            	12.1800     	2.307387    	DMA1_pat        	;
 J377            	13.1200     	1.345615    	DMA1_pat        	;
 J1219           	14.4800     	1.016054    	DMA1_pat        	;
 J379            	10.2500     	2.118114    	DMA1_pat        	;
 J171            	8.8100      	2.065565    	DMA1_pat        	;
 J172            	6.2500      	1.681070    	DMA1_pat        	;
 J173            	13.0000     	1.804737    	DMA1_pat        	;
 J174            	6.1100      	2.491929    	DMA1_pat        	;
 J175            	6.8400      	0.849515    	DMA1_pat        	;
 J177            	13.1400     	1.238028    	DMA1_pat        	;
 J179            	15.0100     	1.032420    	DMA1_pat        	;
 J580            	105.0800    	1.738205    	DMA2_pat        	;
 J486            	86.1100     	0.447723    	DMA2_pat        	;
 J487            	79.0000     	1.057296    	DMA2_pat        	;
 J488            	89.1600     	1.357943    	DMA2_pat        	;
 J489            	85.0200     	2.036660    	DMA2_pat        	;
 J381            	36.0200     	1.352285    	DMA4_pat        	;
 J1223           	3.4800      	1.068833    	DMA1_pat        	;
 J382            	70.4200     	1.272670    	DMA4_pat        	;
 J384            	42.5100     	0.000000    	                	;
 J385            	76.6000     	0.000000    	                	;
 J180            	8.7700      	1.224576    	DMA1_pat        	;
 J181            	10.9400     	1.702049    	DMA1_pat        	;
 J1024           	5.8300      	2.216500    	DMA1_pat        	;
 J183            	13.2800     	0.926288    	DMA1_pat        	;
 J1025           	8.6100      	0.756243    	DMA1_pat        	;
 J186            	9.3800      	0.732167    	DMA1_pat        	;
 J187            	9.8100      	0.375779    	DMA1_pat        	;
 J188            	8.5100      	1.324553    	DMA1_pat        	;
 J189            	7.5800      	0.558155    	DMA1_pat        	;
 J490            	95.8400     	1.461324    	DMA2_pat        	;
 J491            	76.9300     	0.908647    	DMA2_pat        	;
 J492            	94.6700     	2.189937    	DMA2_pat        	;
 J493            	77.6200     	1.195035    	DMA2_pat        	;
 J494            	93.7600     	0.476583    	DMA2_pat        	;
 J495            	91.1500     	1.710156    	DMA2_pat        	;
 J496            	91.0000     	1.868540    	DMA2_pat        	;
 J497            	105.6300    	1.534837    	DMA2_pat        	;
 J498            	90.1200     	1.955348    	DMA2_pat        	;
 J500            	75.5200     	0.404360    	DMA2_pat        	;
 J499            	72.2400     	2.019450    	DMA2_pat        	;
 J501            	80.9700     	0.506545    	DMA2_pat        	;
 J502            	80.9900     	2.391906    	DMA2_pat        	;
 J503            	99.6500     	0.164628    	DMA2_pat        	;
 J504            	66.7100     	0.153805    	DMA2_pat        	;
 J394            	70.5300     	0.346154    	DMA2_pat        	;
 J509            	99.9400     	0.949013    	DMA2_pat        	;
 J399            	75.0000     	0.000000    	                	;
 J401            	70.0000     	0.000000    	                	;
 J406            	71.7400     	0.000000    	                	;
 J295            	56.4200     	0.434433    	DMA4_pat        	;
 J407            	68.0000     	0.000000    	                	;
 J296            	30.9100     	1.787041    	DMA4_pat        	;
 J408            	7.9300      	1.332556    	DMA1_pat        	;
 J297            	79.0500     	1.402524    	DMA4_pat        	;
 J298            	74.4600     	0.541835    	DMA4_pat        	;
 J191            	5.7600      	1.170014    	DMA1_pat        	;
 J303            	50.4200     	1.865886    	DMA4_pat        	;
 J192            	12.4000     	1.880776    	DMA1_pat        	;
 J193            	12.9900     	0.997330    	DMA1_pat        	;
 J305            	47.1100     	2.257748    	DMA4_pat        	;
 J194            	13.4600     	1.865018    	DMA1_pat        	;
 J195            	15.3900     	0.221399    	DMA1_pat        	;
 J196            	13.3500     	1.586429    	DMA1_pat        	;
 J308            	33.2400     	1.782570    	DMA1_pat        	;
 J198            	18.5400     	0.039205    	DMA1_pat        	;
 J200            	15.7500     	1.077861    	DMA1_pat        	;
 J199            	16.2600     	1.004957    	DMA1_pat        	;
 J201            	35.8600     	0.688239    	DMA1_pat        	;
 J202            	10.4100     	2.463435    	DMA1_pat        	;
 J203            	11.0300     	2.006469    	DMA1_pat        	;
 J204            	21.5100     	1.740253    	DMA1_pat        	;
 J205            	16.6600     	1.043998    	DMA1_pat        	;
 J206            	14.1200     	1.836220    	DMA1_pat        	;
 J207            	18.8600     	0.692920    	DMA1_pat        	;
 J208            	11.2500     	0.891466    	DMA1_pat        	;
 J101            	28.6500     	1.083643    	DMA1_pat        	;
 J102            	36.9600     	2.362428    	DMA1_pat        	;
 J109            	17.4700     	0.303875    	DMA1_pat        	;
 J1              	16.8200     	1.614879    	DMA1_pat        	;
 J2              	11.9700     	0.869582    	DMA1_pat        	;
 J3              	29.0200     	0.261081    	DMA1_pat        	;
 J4              	20.8800     	0.463506    	DMA1_pat        	;
 J5              	22.7500     	0.194212    	DMA1_pat        	;
 J6              	15.2500     	1.081899    	DMA1_pat        	;
 J7              	24.9100     	2.398178    	DMA1_pat        	;
 J8              	31.1700     	1.355073    	DMA1_pat        	;
 J9              	31.8900     	1.235941    	DMA1_pat        	;
 J10             	14.6200     	2.432416    	DMA1_pat        	;
 J11             	18.4300     	0.544500    	DMA1_pat        	;
 J12             	29.2700     	0.947478    	DMA1_pat        	;
 J13             	32.0400     	0.989611    	DMA1_pat        	;
 J14             	37.9100     	0.000000    	                	;
 J15             	102.8400    	0.000000    	                	;
 J16             	88.8900     	0.346154    	DMA2_pat        	;
 J17             	82.7500     	0.000000    	                	;
 J18             	84.9600     	0.000000    	                	;
 J19             	90.9400     	0.346154    	DMA2_pat        	;
 J20             	80.0000     	0.000000    	                	;
 J21             	80.0000     	0.346154    	DMA2_pat        	;
 J22             	82.7400     	0.000000    	                	;
 J23             	75.9600     	0.000000    	                	;
 J25             	94.1300     	0.161227    	DMA2_pat        	;
 J26             	76.3500     	1.890231    	DMA2_pat        	;
 J27             	82.0800     	1.751286    	DMA2_pat        	;
 J28             	45.0000     	1.242678    	DMA2_pat        	;
 J29             	49.0000     	0.388590    	DMA2_pat        	;
 J30             	72.0100     	0.559344    	DMA2_pat        	;
 J31             	69.7800     	0.815360    	DMA2_pat        	;
 J32             	45.0000     	1.961221    	DMA2_pat        	;
 J33             	48.0000     	0.125656    	DMA2_pat        	;
 J34             	50.0000     	1.295040    	DMA2_pat        	;
 J35             	67.7800     	1.892574    	DMA2_pat        	;
 J36             	51.0800     	2.001675    	DMA2_pat        	;
 J37             	66.1900     	0.813014    	DMA2_pat        	;
 J38             	47.0000     	2.431822    	DMA2_pat        	;
 J24             	34.5300     	2.010668    	DMA1_pat        	;
 J39             	45.8800     	1.687065    	DMA1_pat        	;
 J40             	12.8000     	2.262824    	DMA1_pat        	;
 J123            	38.4100     	2.189450    	DMA3_pat        	;
 J140            	39.9400     	1.041621    	DMA3_pat        	;
 J141            	41.4500     	0.307707    	DMA3_pat        	;
 J157            	31.4900     	2.385395    	DMA3_pat        	;
 J158            	25.8800     	1.993244    	DMA3_pat        	;
 J168            	40.2100     	1.740713    	DMA3_pat        	;
 J170            	46.8700     	1.004011    	DMA3_pat        	;
 J176            	50.6400     	0.040745    	DMA3_pat        	;
 J178            	58.8700     	0.419407    	DMA3_pat        	;
 J184            	56.0900     	0.410586    	DMA3_pat        	;
 J185            	43.7100     	1.274300    	DMA3_pat        	;
 J190            	58.4900     	1.015156    	DMA3_pat        	;
 J197            	41.8600     	0.265335    	DMA3_pat        	;
 J213            	52.0700     	0.690309    	DMA3_pat        	;
 J215            	75.7600     	1.607618    	DMA3_pat        	;
 J216            	53.0600     	2.122750    	DMA3_pat        	;
 J227            	52.8900     	1.244924    	DMA3_pat        	;
 J238            	44.1600     	0.469439    	DMA3_pat        	;
 J239            	43.4900     	2.241541    	DMA3_pat        	;
 J255            	35.3100     	0.932035    	DMA3_pat        	;
 J256            	40.0000     	0.000000    	                	;
 J258            	51.2400     	1.927081    	DMA3_pat        	;
 J260            	32.5300     	0.545001    	DMA3_pat        	;
 J265            	50.8700     	1.117484    	DMA3_pat        	;
 J266            	39.8300     	0.590070    	DMA3_pat        	;
 J267            	22.3100     	2.195961    	DMA4_pat        	;
 J61             	72.0000     	1.526082    	DMA5_pat        	;
 J92             	72.0000     	0.936081    	DMA5_pat        	;
 J268            	69.6800     	0.973755    	DMA4_pat        	;
 J278            	104.2900    	2.151474    	DMA2_pat        	;
 J281            	83.7200     	1.464845    	DMA2_pat        	;
 J283            	94.0600     	2.328899    	DMA2_pat        	;
 J284            	77.3800     	1.292982    	DMA2_pat        	;
 J136            	81.8000     	0.825751    	DMA2_pat        	;
 J137            	9.1100      	2.171135    	DMA1_pat        	;
 J145            	47.4600     	0.647652    	DMA3_pat        	;
 J118            	75.0000     	0.648854    	DMA5_pat        	;
 J52             	54.7000     	0.446733    	DMA4_pat        	;
 J81             	50.0000     	0.867393    	DMA2_pat        	;
 J88             	45.0000     	0.006264    	DMA2_pat        	;
 J90             	84.0000     	1.855855    	DMA2_pat        	;
 J93             	65.0000     	6.306652    	DMA2_pat        	;
 J147            	68.0000     	0.696474    	DMA2_pat        	;
 J148            	50.0000     	1.757425    	DMA2_pat        	;
 J149            	40.0000     	1.012163    	DMA2_pat        	;
 J150            	60.0000     	2.028929    	DMA2_pat        	;
 J151            	60.0000     	1.854451    	DMA2_pat        	;
 J152            	32.0000     	1.094160    	DMA2_pat        	;
 J153            	60.0000     	0.194952    	DMA2_pat        	;
 J169            	42.0000     	1.026579    	DMA2_pat        	;
 J182            	40.0000     	0.848438    	DMA2_pat        	;
 J222            	32.0000     	1.776385    	DMA2_pat        	;
 J224            	37.0000     	0.780720    	DMA2_pat        	;
 J230            	30.0000     	1.996934    	DMA4_pat        	;
 J235            	53.0000     	0.379390    	DMA4_pat        	;
 J240            	87.0000     	1.482479    	DMA2_pat        	;
 J269            	56.0000     	0.000000    	                	;
 J273            	56.0000     	0.000000    	                	;
 J274            	56.0000     	0.000000    	                	;
 J276            	56.0000     	0.000000    	                	;
 J280            	56.0000     	0.000000    	                	;
 J285            	56.0000     	0.000000    	                	;
 J287            	40.0000     	0.000000    	                	;
 J288            	40.0000     	0.000000    	                	;
 J289            	40.0000     	0.000000    	                	;
 J290            	40.0000     	0.000000    	                	;
 J291            	65.0000     	0.000000    	                	;
 J292            	40.0000     	0.000000    	                	;
 J299            	40.0000     	0.000000    	                	;
 J300            	40.0000     	0.000000    	                	;
 J301            	44.0000     	0.000000    	                	;
 J302            	44.0000     	0.000000    	                	;
 J304            	44.0000     	0.000000    	                	;
 J306            	44.0000     	0.000000    	                	;
 J307            	44.0000     	0.000000    	                	;
 J309            	44.0000     	0.000000    	                	;
 J317            	44.0000     	0.000000    	                	;
 J323            	44.0000     	0.000000    	                	;
 N1              	46.5000     	1.730769    	DMA3_pat        	;
 N2              	45.2000     	1.615385    	DMA3_pat        	;
 N3              	45.9000     	1.038462    	DMA3_pat        	;
 N4              	45.5000     	1.384615    	DMA3_pat        	;
 N5              	45.1000     	0.807692    	DMA3_pat        	;
 N6              	46.7000     	1.153846    	DMA3_pat        	;
 N7              	46.3000     	1.384615    	DMA3_pat        	;
 N8              	45.9000     	0.807692    	DMA3_pat        	;
 N9              	45.0000     	0.980769    	DMA3_pat        	;
 N10             	45.1000     	0.807692    	DMA3_pat        	;
 N11             	47.4600     	0.000000    	                	;

[RESERVOIRS]
;ID              	Head        	Pattern         
 R1              	59.0000     	                	;

[TANKS]
;ID              	Elevation   	InitLevel   	MinLevel    	MaxLevel    	Diameter    	MinVol      	VolCurve
 T3              	112.9000    	3.3750      	0.0000      	6.7500      	13.7300     	0.0000      	                	;
 T1              	71.5000     	3.2500      	0.0000      	6.5000      	31.3000     	0.0000      	                	;
 T7              	102.0000    	2.5000      	0.0000      	5.0000      	17.4858     	0.0000      	                	;
 T6              	101.5000    	2.7500      	0.0000      	5.5000      	13.6086     	0.0000      	                	;
 T5              	105.8000    	2.2500      	0.0000      	4.5000      	16.8199     	0.0000      	                	;
 T2              	65.0000     	2.9500      	0.0000      	5.9000      	20.7800     	0.0000      	                	;
 T4              	132.5000    	2.3500      	0.0000      	4.7000      	16.4622     	0.0000      	                	;

[PIPES]
;ID              	Node1           	Node2           	Length      	Diameter    	Roughness   	MinorLoss   	Status
 P1              	J175            	J174            	52.9000     	203.0000    	72.4549     	0.0000      	Open  	;
 P10             	J335            	J336            	79.2300     	76.0000     	108.0095    	0.0000      	Open  	;
 P100            	J159            	J160            	107.8800    	406.0000    	76.5142     	0.0000      	Open  	;
 P1000           	J341            	J204            	109.2700    	203.0000    	76.9461     	0.0000      	Open  	;
 P101            	J166            	J162            	243.3700    	254.0000    	84.2085     	0.0000      	Open  	;
 P1016           	J22             	J233            	164.7700    	305.0000    	85.2382     	0.0000      	Open  	;
 P102            	J109            	J408            	1280.3000   	508.0000    	92.9472     	0.0000      	Open  	;
 P1022           	J281            	J283            	200.7600    	102.0000    	99.5808     	0.0000      	Open  	;
 P1023           	J278            	J283            	136.3400    	102.0000    	95.6885     	0.0000      	Open  	;
 P1024           	J580            	J278            	375.6200    	102.0000    	89.6207     	0.0000      	Open  	;
 P1025           	J575            	J132            	39.1800     	76.0000     	97.7766     	0.0000      	Open  	;
 P1026           	J132            	J493            	45.6100     	76.0000     	88.4504     	0.0000      	Open  	;
 P1027           	J486            	J488            	82.3200     	51.0000     	92.0106     	0.0000      	Open  	;
 P1028           	J489            	J486            	9.5700      	51.0000     	86.9934     	0.0000      	Open  	;
 P1029           	J489            	J492            	122.6200    	76.0000     	91.3396     	0.0000      	Open  	;
 P103            	J2              	J1219           	35.9800     	254.0000    	79.3710     	0.0000      	Open  	;
 P1030           	J493            	J489            	95.2500     	76.0000     	104.6083    	0.0000      	Open  	;
 P1031           	J494            	J490            	188.2800    	152.0000    	84.3741     	0.0000      	Open  	;
 P1032           	J490            	J492            	143.2900    	152.0000    	98.4310     	0.0000      	Open  	;
 P1033           	J492            	J131            	128.7900    	152.0000    	84.6894     	0.0000      	Open  	;
 P1034           	J254            	J253            	52.8700     	203.0000    	97.4185     	0.0000      	Open  	;
 P1035           	J253            	J128            	122.4700    	152.0000    	97.7581     	0.0000      	Open  	;
 P1036           	J131            	J128            	83.3300     	203.0000    	74.2979     	0.0000      	Open  	;
 P1039           	J573            	J128            	121.3800    	203.0000    	92.1423     	0.0000      	Open  	;
 P104            	J166            	J167            	33.1100     	203.0000    	99.8866     	0.0000      	Open  	;
 P1040           	J136            	J573            	29.4500     	152.0000    	94.6888     	0.0000      	Open  	;
 P1041           	J136            	J129            	307.5400    	102.0000    	112.5082    	0.0000      	Open  	;
 P1042           	J89             	J573            	84.5400     	152.0000    	76.1502     	0.0000      	Open  	;
 P1044           	T5              	J64             	65.8000     	203.0000    	100.2182    	0.0000      	Open  	;
 P1045           	J64             	J53             	68.6300     	203.0000    	118.8214    	0.0000      	Open  	;
 P106            	J102            	J101            	270.3800    	102.0000    	63.5511     	0.0000      	Open  	;
 P107            	J171            	J172            	357.0000    	203.0000    	80.5098     	0.0000      	Open  	;