[JUNCTIONS]
;ID	Elev	Demand	Pattern
 J511	105.08	1.763868462	DMA2_pat
 J411	8.95	1.33356	DMA1_pat
 J414	34.36	1.448796923	DMA1_pat
 J415	65.0	0.0
 J416	42.6	0.0
 J417	37.38	1.936849615	DMA1_pat
 J418	37.39	0.0
 J419	40.5	0.0
 J310	51.84	2.036224615	DMA4_pat
 J311	55.95000000000001	1.772595	DMA4_pat
 J312	68.48	0.113381538	DMA4_pat
 J313	67.66	1.035083077	DMA4_pat
 J314	14.94	2.156548846	DMA1_pat
 J315	16.03	1.9762003850000003	DMA1_pat
 J316	12.98	0.93384	DMA1_pat
 J318	53.67000000000001	2.404883077	DMA4_pat
 J319	39.29	2.178615	DMA4_pat
 J210	7.01	0.692307692	DMA1_pat
 J211	11.27	2.373893077	DMA1_pat
 J212	7.87	0.910046538	DMA1_pat
 J214	8.67	1.312171154	DMA1_pat
 J217	10.98	1.91778	DMA1_pat
 J218	7.68	0.133760769	DMA1_pat
 J219	52.00000000000001	1.481145	DMA5_pat
 J110	15.92	1.171750385	DMA1_pat
 J420	39.99	0.0
 J421	37.09	1.556741538	DMA1_pat
 J422	38.81	0.0
 J1153	22.14	0.659483077	DMA1_pat
 J1154	14.61	0.698355	DMA1_pat
 J1155	15.54	2.074504615	DMA1_pat
 J425	64.42	0.0
 J426	72.71	0.0
 J1157	22.21	2.465233846	DMA1_pat
 J427	67.65	0.0
 J1158	28.25	0.567165	DMA1_pat
 J428	16.2	1.737789231	DMA1_pat
 J429	12.560000000000002	2.450008846	DMA1_pat
 J320	46.73	0.609828462	DMA4_pat
 J321	44.589999999999996	1.334681538	DMA4_pat
 J322	48.019999999999996	0.265924615	DMA4_pat
 J324	42.38	2.498536154	DMA4_pat
 J1056	7.640000000000001	1.69044	DMA1_pat
 J327	49.68	0.039259615	DMA4_pat
 J1058	13.579999999999998	1.43796	DMA1_pat
 J328	45.69	0.250130769	DMA4_pat
 J329	44.050000000000004	0.257556923	DMA4_pat
 J220	59.99999999999999	1.997210769	DMA5_pat
 J221	77.07	0.711200769	DMA4_pat
 J225	13.33	0.114123462	DMA1_pat
 J226	11.1	0.739431923	DMA1_pat
 J50	71.8	0.9550257690000001	DMA4_pat
 J51	72.42	0.752426538	DMA4_pat
 J53	80.0	2.371428462	DMA5_pat
 J54	80.0	2.449573846	DMA5_pat
 J128	85.26	1.003435385	DMA2_pat
 J55	71.0	0.6957	DMA5_pat
 J129	62.85	0.401103462	DMA2_pat
 J56	72.0	0.407053846	DMA5_pat
 J57	59.0	1.616466923	DMA5_pat
 J58	76.0	1.025183077	DMA5_pat
 J59	57.0	1.031918077	DMA5_pat
 J1160	24.91	1.781825769	DMA1_pat
 J1161	25.25	0.815515385	DMA1_pat
 J431	16.9	1.582946538	DMA1_pat
 J432	19.88	0.518903077	DMA1_pat
 J433	27.35	0.465033462	DMA1_pat
 J434	16.48	1.458398077	DMA1_pat
 J435	12.149999999999999	0.201786923	DMA1_pat
 J436	17.68	1.144929231	DMA1_pat
 J438	10.43	2.264325	DMA1_pat
 J1169	55.419999999999995	0.653420769	DMA3_pat
 J439	17.78	1.9630303849999997	DMA1_pat
 J330	58.25000000000001	0.947255769	DMA4_pat
 J331	59.26	0.724163077	DMA4_pat
 J332	36.0	1.986	DMA1_pat
 J333	25.7	1.579355769	DMA1_pat
 J334	29.28	1.569105	DMA1_pat
 J335	25.08	1.071140769	DMA1_pat
 J336	23.81	0.24493500000000004	DMA1_pat
 J337	22.11	1.402600385	DMA1_pat
 J231	71.9	1.736214231	DMA4_pat
 J232	69.81	2.284294615	DMA4_pat
 J233	74.23	0.0
 J234	64.06	0.045	DMA2_pat
 J236	58.0	1.358401154	DMA5_pat
 J237	73.14	2.29041	DMA5_pat
 J130	54.52	1.075653462	DMA2_pat
 J131	88.05	1.694869615	DMA2_pat
 J132	74.55	1.256134615	DMA2_pat
 J133	69.58	1.284343846	DMA2_pat
 J60	55.0	1.157449615	DMA5_pat
 J134	80.7	0.883681154	DMA2_pat
 J135	70.0	1.012085769	DMA2_pat
 J62	59.99999999999999	0.674329615	DMA5_pat
 J64	80.0	0.138984231	DMA5_pat
 J65	80.0	0.609613846	DMA5_pat
 J66	72.0	2.447695385	DMA5_pat
 J67	79.00000000000001	0.152290385	DMA5_pat
 J68	73.0	0.975729231	DMA5_pat
 J69	71.0	0.9124880769999999	DMA5_pat
 J1170	54.54	1.224736154	DMA3_pat
 J441	69.0	0.0
 J444	29.46	1.186148077	DMA1_pat
 J341	14.89	0.643168846	DMA1_pat
 J344	54.7	1.57188	DMA3_pat
 J345	49.97	1.355175	DMA3_pat
 J347	54.4	0.390755769	DMA3_pat
 J348	62.18	2.346363462	DMA4_pat
 J349	36.41	1.636248462	DMA4_pat
 J241	70.0	1.265218846	DMA5_pat
 J242	65.0	0.9761792309999999	DMA5_pat
 J243	59.99999999999999	0.268438846	DMA5_pat
 J244	70.0	1.959988846	DMA5_pat
 J245	71.0	1.149101538	DMA5_pat
 J246	55.0	1.884220385	DMA5_pat
 J247	57.0	1.490236154	DMA5_pat
 J248	54.0	2.081825769	DMA5_pat
 J249	50.0	0.046895769	DMA5_pat
 J142	5.53	0.525921923	DMA1_pat
 J143	6.3	0.184883077	DMA1_pat
 J70	70.0	0.263633077	DMA5_pat
 J144	4.17	0.829235769	DMA1_pat
 J71	77.0	0.320625	DMA5_pat
 J72	75.0	6.03462E-4	DMA5_pat
 J73	80.0	1.341985385	DMA5_pat
 J74	75.0	1.642638462	DMA5_pat
 J76	70.0	1.360035	DMA5_pat
 J77	76.0	2.06853	DMA5_pat
 J78	60.559999999999995	0.204733846	DMA4_pat
 J350	33.82	0.47980615399999993	DMA3_pat
 J351	25.51	1.697283462	DMA4_pat
 J352	47.54999999999999	1.135519615	DMA4_pat
 J353	22.64	0.892558846	DMA4_pat
 J354	18.68	0.374951538	DMA4_pat
 J355	28.87	1.760989615	DMA4_pat
 J358	22.300000000000004	2.321965385	DMA4_pat
 J359	17.57	1.325530385	DMA4_pat
 J250	67.0	0.22410346199999998	DMA5_pat
 J251	75.19	1.8943234619999998	DMA2_pat
 J252	83.82	1.004605385	DMA2_pat
 J253	74.69	1.154686154	DMA2_pat
 J254	74.59	1.230414231	DMA2_pat
 J257	80.0	0.519069231	DMA2_pat
 J154	43.69	0.82434	DMA1_pat
 J155	44.41	0.23857269200000003	DMA1_pat
 J82	70.87	1.474481538	DMA4_pat
 J156	46.16	0.424683462	DMA1_pat
 J83	61.07000000000001	2.319041538	DMA4_pat
 J84	43.82	0.244824231	DMA5_pat
 J85	45.0	1.109656154	DMA5_pat
 J159	37.41	0.682367308	DMA1_pat
 J86	50.0	2.181366923	DMA5_pat
 J87	42.63	1.8767192309999998	DMA5_pat
 J89	68.29	0.682355769	DMA2_pat
 J360	20.71	1.684118077	DMA4_pat
 J361	26.67	0.641571923	DMA4_pat
 J362	43.66	0.22474153800000002	DMA4_pat
 J363	72.23	0.0
 J364	65.0	0.0
 J365	29.83	1.975323462	DMA1_pat
 J366	14.46	0.743145	DMA1_pat
 J1208	42.74	0.588205385	DMA4_pat
 J367	13.6	1.201186154	DMA1_pat
 J369	20.27	0.636504231	DMA1_pat
 J160	43.69	0.851516538	DMA1_pat
 J161	22.81	0.11233499999999999	DMA1_pat
 J162	36.88	1.206070385	DMA1_pat
 J163	16.2	0.515043462	DMA1_pat
 J164	17.34	2.161336154	DMA1_pat
 J91	64.09	1.471571538	DMA2_pat
 J165	16.69	1.8872711539999998	DMA1_pat
 J166	23.95	2.319708462	DMA1_pat
 J167	23.91	0.827541923	DMA1_pat
 J94	30.75	1.357353462	DMA3_pat
 J95	22.56	0.201728077	DMA1_pat
 J96	29.999999999999996	1.585930385	DMA1_pat
 J97	34.19	1.025091923	DMA1_pat
 J976	6.3	2.401058077	DMA1_pat
 J571	77.11	0.286558846	DMA2_pat
 J572	76.4	2.308613077	DMA2_pat
 J573	81.62	1.550524615	DMA2_pat
 J574	67.36	0.869315769	DMA2_pat
 J575	75.27	0.373114615	DMA2_pat
 J576	80.8	1.199945769	DMA2_pat
 J370	20.46	0.548523462	DMA1_pat
 J371	68.81	0.0
 J372	23.199999999999996	0.326051538	DMA1_pat
 J373	27.22	0.072214615	DMA1_pat
 J374	13.7	0.863479615	DMA1_pat
 J375	22.72	1.369171154	DMA1_pat
 J376	12.18	2.307386538	DMA1_pat
 J377	13.12	1.345615385	DMA1_pat
 J1219	14.48	1.016053846	DMA1_pat
 J379	10.25	2.118114231	DMA1_pat
 J171	8.81	2.065564615	DMA1_pat
 J172	6.25	1.681069615	DMA1_pat
 J173	13.000000000000002	1.804736538	DMA1_pat
 J174	6.11	2.491929231	DMA1_pat
 J175	6.84	0.849514615	DMA1_pat
 J177	13.139999999999999	1.238028462	DMA1_pat
 J179	15.01	1.03242	DMA1_pat
 J580	105.08	1.738204615	DMA2_pat
 J486	86.11	0.44772346199999996	DMA2_pat
 J487	79.00000000000001	1.057295769	DMA2_pat
 J488	89.16	1.357943077	DMA2_pat
 J489	85.02	2.036659615	DMA2_pat
 J381	36.02	1.352284615	DMA4_pat
 J1223	3.48	1.068833077	DMA1_pat
 J382	70.42	1.272670385	DMA4_pat
 J384	42.51	0.0
 J385	76.6	0.0
 J180	8.77	1.224575769	DMA1_pat
 J181	10.94	1.702048846	DMA1_pat
 J1024	5.83	2.216500385	DMA1_pat
 J183	13.28	0.926288077	DMA1_pat
 J1025	8.61	0.756243462	DMA1_pat
 J186	9.38	0.732167308	DMA1_pat
 J187	9.81	0.375778846	DMA1_pat
 J188	8.51	1.324553077	DMA1_pat
 J189	7.58	0.558154615	DMA1_pat
 J490	95.84	1.461324231	DMA2_pat
 J491	76.93	0.908646923	DMA2_pat
 J492	94.67	2.189936538	DMA2_pat
 J493	77.62	1.195035	DMA2_pat
 J494	93.75999999999999	0.476583462	DMA2_pat
 J495	91.15	1.710155769	DMA2_pat
 J496	91.0	1.868539615	DMA2_pat
 J497	105.63	1.534836923	DMA2_pat
 J498	90.12	1.955348077	DMA2_pat
 J500	75.52	0.404359615	DMA2_pat
 J499	72.24	2.01945	DMA2_pat
 J501	80.97	0.506545385	DMA2_pat
 J502	80.99	2.391905769	DMA2_pat
 J503	99.65	0.164628462	DMA2_pat
 J504	66.71	0.153805385	DMA2_pat
 J394	70.53	0.346153846	DMA2_pat
 J509	99.94	0.949013077	DMA2_pat
 J399	75.0	0.0
 J401	70.0	0.0
 J406	71.74	0.0
 J295	56.42	0.434433462	DMA4_pat
 J407	68.0	0.0
 J296	30.91	1.7870411540000002	DMA4_pat
 J408	7.929999999999999	1.332556154	DMA1_pat
 J297	79.05	1.402524231	DMA4_pat
 J298	74.46	0.541834615	DMA4_pat
 J191	5.76	1.170013846	DMA1_pat
 J303	50.42	1.865885769	DMA4_pat
 J192	12.4	1.8807761539999999	DMA1_pat
 J193	12.990000000000002	0.9973303849999999	DMA1_pat
 J305	47.11	2.257748077	DMA4_pat
 J194	13.46	1.8650180769999998	DMA1_pat
 J195	15.39	0.221398846	DMA1_pat
 J196	13.35	1.586428846	DMA1_pat
 J308	33.24	1.78257	DMA1_pat
 J198	18.54	0.039205385	DMA1_pat
 J200	15.75	1.077860769	DMA1_pat
 J199	16.26	1.004957308	DMA1_pat
 J201	35.86	0.688239231	DMA1_pat
 J202	10.41	2.463435	DMA1_pat
 J203	11.029999999999998	2.006469231	DMA1_pat
 J204	21.51	1.740252692	DMA1_pat
 J205	16.66	1.043997692	DMA1_pat
 J206	14.12	1.836220385	DMA1_pat
 J207	18.86	0.692920385	DMA1_pat
 J208	11.25	0.891466154	DMA1_pat
 J101	28.65	1.083642692	DMA1_pat
 J102	36.96	2.362428462	DMA1_pat
 J109	17.47	0.303874615	DMA1_pat
 J1	16.82	1.614879231	DMA1_pat
 J2	11.97	0.869582308	DMA1_pat
 J3	29.02	0.261080769	DMA1_pat
 J4	20.88	0.46350576900000007	DMA1_pat
 J5	22.75	0.194211923	DMA1_pat
 J6	15.25	1.081899231	DMA1_pat
 J7	24.91	2.398178077	DMA1_pat
 J8	31.17	1.355073462	DMA1_pat
 J9	31.89	1.235941154	DMA1_pat
 J10	14.62	2.432416154	DMA1_pat
 J11	18.43	0.5445	DMA1_pat
 J12	29.27	0.947478462	DMA1_pat
 J13	32.04	0.989611154	DMA1_pat
 J14	37.91	0.0
 J15	102.84000000000002	0.0
 J16	88.89	0.346153846	DMA2_pat
 J17	82.75	0.0
 J18	84.96	0.0
 J19	90.94	0.346153846	DMA2_pat
 J20	80.0	0.0
 J21	80.0	0.346153846	DMA2_pat
 J22	82.74	0.0
 J23	75.96	0.0
 J25	94.13	0.161226923	DMA2_pat
 J26	76.35	1.8902307689999998	DMA2_pat
 J27	82.08	1.751285769	DMA2_pat
 J28	45.0	1.242678462	DMA2_pat
 J29	49.0	0.38859	DMA2_pat
 J30	72.01	0.559344231	DMA2_pat
 J31	69.78	0.815359615	DMA2_pat
 J32	45.0	1.9612211540000002	DMA2_pat
 J33	48.00000000000001	0.125656154	DMA2_pat
 J34	50.0	1.29504	DMA2_pat
 J35	67.78	1.8925742309999998	DMA2_pat
 J36	51.08	2.001675	DMA2_pat
 J37	66.19	0.813013846	DMA2_pat
 J38	47.0	2.431821923	DMA2_pat
 J24	34.53	2.010668077	DMA1_pat
 J39	45.88	1.687065	DMA1_pat
 J40	12.8	2.262823846	DMA1_pat
 J123	38.41	2.189449615	DMA3_pat
 J140	39.94	1.041620769	DMA3_pat
 J141	41.45	0.307706538	DMA3_pat
 J157	31.49	2.385394615	DMA3_pat
 J158	25.88	1.9932438460000002	DMA3_pat
 J168	40.21	1.740713077	DMA3_pat
 J170	46.87	1.004011154	DMA3_pat
 J176	50.64	0.040744615	DMA3_pat
 J178	58.870000000000005	0.419406923	DMA3_pat
 J184	56.09	0.410585769	DMA3_pat
 J185	43.71	1.274299615	DMA3_pat
 J190	58.49	1.015156154	DMA3_pat
 J197	41.86	0.265335	DMA3_pat
 J213	52.07	0.690309231	DMA3_pat
 J215	75.76	1.607618077	DMA3_pat
 J216	53.06	2.122750385	DMA3_pat
 J227	52.89	1.244923846	DMA3_pat
 J238	44.16	0.46943884599999997	DMA3_pat
 J239	43.489999999999995	2.241541154	DMA3_pat
 J255	35.31	0.9320353850000002	DMA3_pat
 J256	40.0	0.0
 J258	51.24	1.927081154	DMA3_pat
 J260	32.53	0.545000769	DMA3_pat
 J265	50.870000000000005	1.117483846	DMA3_pat
 J266	39.83	0.59007	DMA3_pat
 J267	22.310000000000002	2.195960769	DMA4_pat
 J61	72.0	1.526081538	DMA5_pat
 J92	72.0	0.936080769	DMA5_pat
 J268	69.68	0.973755	DMA4_pat
 J278	104.29	2.151474231	DMA2_pat
 J281	83.72	1.464844615	DMA2_pat
 J283	94.06	2.328898846	DMA2_pat
 J284	77.38	1.292981538	DMA2_pat
 J136	81.8	0.825751154	DMA2_pat
 J137	9.11	2.171134615	DMA1_pat
 J145	47.459999999999994	0.647651538	DMA3_pat
 J118	75.0	0.648853846	DMA5_pat
 J52	54.7	0.446733462	DMA4_pat
 J81	50.0	0.867393462	DMA2_pat
 J88	45.0	0.006264231	DMA2_pat
 J90	84.0	1.855855385	DMA2_pat
 J93	65.0	6.306651923	DMA2_pat
 J147	68.0	0.696474231	DMA2_pat
 J148	50.0	1.757425385	DMA2_pat
 J149	40.0	1.012163077	DMA2_pat
 J150	59.99999999999999	2.028928846	DMA2_pat
 J151	59.99999999999999	1.854451154	DMA2_pat
 J152	31.999999999999996	1.09416	DMA2_pat
 J153	59.99999999999999	0.194951538	DMA2_pat
 J169	42.0	1.026579231	DMA2_pat
 J182	40.0	0.848438077	DMA2_pat
 J222	31.999999999999996	1.776385385	DMA2_pat
 J224	37.0	0.78072	DMA2_pat
 J230	29.999999999999996	1.996933846	DMA4_pat
 J235	53.0	0.379390385	DMA4_pat
 J240	86.99999999999999	1.482478846	DMA2_pat
 J269	55.99999999999999	0.0
 J273	55.99999999999999	0.0
 J274	55.99999999999999	0.0
 J276	55.99999999999999	0.0
 J280	55.99999999999999	0.0
 J285	55.99999999999999	0.0
 J287	40.0	0.0
 J288	40.0	0.0
 J289	40.0	0.0
 J290	40.0	0.0
 J291	65.0	0.0
 J292	40.0	0.0
 J299	40.0	0.0
 J300	40.0	0.0
 J301	44.0	0.0
 J302	44.0	0.0
 J304	44.0	0.0
 J306	44.0	0.0
 J307	44.0	0.0
 J309	44.0	0.0
 J317	44.0	0.0
 J323	44.0	0.0
 N1	46.5	1.730769231	DMA3_pat
 N2	45.199999999999996	1.615384615	DMA3_pat
 N3	45.9	1.038461538	DMA3_pat
 N4	45.5	1.384615385	DMA3_pat
 N5	45.1	0.807692308	DMA3_pat
 N6	46.7	1.153846154	DMA3_pat
 N7	46.3	1.384615385	DMA3_pat
 N8	45.9	0.807692308	DMA3_pat
 N9	45.0	0.980769231	DMA3_pat
 N10	45.1	0.807692308	DMA3_pat
 N11	47.459999999999994	0.0

[RESERVOIRS]
;ID	Head	Pattern
 R1	59.0

[TANKS]
;ID	Elevation	InitLevel	MinLevel	MaxLevel	Diameter	MinVol	VolCurve
 T3	112.9	3.374999999999995	0.0	6.750000000000008	13.730000000000002	0.0
 T1	71.5	3.2499999999999973	0.0	6.5000000000000036	31.3	0.0
 T7	102.0	2.5000000000000036	0.0	5.000000000000007	7.140000000000001	0.0
 T6	101.5	2.7499999999999987	0.0	5.499999999999997	8.33	0.0
 T5	105.8	2.2500000000000084	0.0	4.499999999999999	11.89	0.0
 T2	65.0	2.95	0.0	5.90000000000000	20.78	0.0
 T4	132.5	2.3500000000000028	0.0	4.7000000000000055	11.64	0.0

[PIPES]
;ID	Node1	Node2	Length	Diameter	Roughness	MinorLoss	Status
 P1	J175	J174	52.9	203.0 72.4549	0.0 OPEN
 P10	J335	J336	79.23	76.0 108.0095	0.0 OPEN
 P100	J159	J160	107.88	406.0 76.5142	0.0 OPEN
 P1000	J341	J204	109.26999999999998	203.0 76.9461	0.0 OPEN
 P101	J166	J162	243.37	254.0 84.2085	0.0 OPEN
 P1016	J22	J233	164.77	305.00000000000006 85.2382	0.0 OPEN
 P102	J109	J408	1280.3	508.0 92.9472	0.0 OPEN
 P1022	J281	J283	200.76	101.99999999999999 99.5808	0.0 OPEN
 P1023	J278	J283	136.34	101.99999999999999 95.6885	0.0 OPEN
 P1024	J580	J278	375.62	101.99999999999999 89.6207	0.0 OPEN
 P1025	J575	J132	39.18	76.0 97.7766	0.0 OPEN
 P1026	J132	J493	45.61	76.0 88.4504	0.0 OPEN
 P1027	J486	J488	82.32	50.99999999999999 92.0106	0.0 OPEN
 P1028	J489	J486	9.57	50.99999999999999 86.9934	0.0 OPEN
 P1029	J489	J492	122.62	76.0 91.3396	0.0 OPEN
 P103	J2	J1219	35.98	254.0 79.371	0.0 OPEN
 P1030	J493	J489	95.25	76.0 104.6083	0.0 OPEN
 P1031	J494	J490	188.28	152.0 84.3741	0.0 OPEN
 P1032	J490	J492	143.29	152.0 98.431	0.0 OPEN
 P1033	J492	J131	128.79	152.0 84.6894	0.0 OPEN
 P1034	J254	J253	52.87	203.0 97.4185	0.0 OPEN
 P1035	J253	J128	122.47	152.0 97.7581	0.0 OPEN
 P1036	J131	J128	83.33	203.0 74.2979	0.0 OPEN
 P1039	J573	J128	121.38	203.0 92.1423	0.0 OPEN
 P104	J166	J167	33.11	203.0 99.8866	0.0 OPEN
 P1040	J136	J573	29.449999999999996	152.0 94.6888	0.0 OPEN
 P1041	J136	J129	307.54	101.99999999999999 112.5082	0.0 OPEN
 P1042	J89	J573	84.54000000000002	152.0 76.1502	0.0 OPEN
 P1044	T5	J64	65.8	203.0 100.2182	0.0 OPEN
 P1045	J64	J53	68.63	203.0 118.8214	0.0 OPEN
 P106	J102	J101	270.38	101.99999999999999 63.5511	0.0 OPEN
 P107	J171	J172	357.0	203.0 80.5098	0.0 OPEN
 P108	J101	J109	183.53	203.0 78.7205	0.0 OPEN
 P109	J175	J172	218.52	203.0 76.8934	0.0 OPEN
 P11	J318	J235	83.45	101.6 96.8344	0.0 OPEN
 P110	J179	J177	425.83	508.0 98.9941	0.0 OPEN
 P111	J976	J143	126.36	152.0 72.4117	0.0 OPEN
 P112	J142	J976	646.98	305.00000000000006 68.6009	0.0 OPEN
 P113	J137	J181	310.73	152.0 85.3538	0.0 OPEN
 P115	J408	J435	99.88	101.99999999999999 91.2315	0.0 OPEN
 P116	J186	J187	204.54	152.0 93.4739	0.0 OPEN
 P117	J435	J431	104.00000000000001	101.99999999999999 67.962	0.0 OPEN
 P118	J431	J432	115.91	101.99999999999999 84.6653	0.0 OPEN
 P119	J188	J189	64.88	305.00000000000006 78.1412	0.0 OPEN
 P12	J208	J337	85.24	406.0 89.6626	0.0 OPEN
 P120	J432	J1160	91.40000000000002	101.99999999999999 88.389	0.0 OPEN
 P121	J192	J193	42.23	152.0 100.3676	0.0 OPEN
 P122	J173	J194	45.06	305.00000000000006 78.978	0.0 OPEN
 P123	J1160	J3	51.21	152.0 61.0614	0.0 OPEN
 P124	J376	J225	99.09	101.99999999999999 78.8303	0.0 OPEN
 P125	J163	J196	193.35	508.0 84.7389	0.0 OPEN
 P126	J225	J316	109.6	76.0 89.7379	0.0 OPEN
 P127	J316	J40	87.22	101.99999999999999 73.6774	0.0 OPEN
 P128	J40	J374	165.62999999999997	101.99999999999999 90.9483	0.0 OPEN
 P129	J374	J377	79.58999999999999	101.99999999999999 78.0662	0.0 OPEN
 P13	J337	J24	62.56	406.0 83.0438	0.0 OPEN
 P130	J376	J226	56.79	76.0 70.7072	0.0 OPEN
 P131	J206	J207	86.5	76.0 74.7267	0.0 OPEN
 P132	J226	J379	67.35	76.0 88.5417	0.0 OPEN
 P134	J4	J5	68.79	76.0 78.568	0.0 OPEN
 P136	J5	J431	241.77	101.99999999999999 75.7332	0.0 OPEN
 P138	J203	J217	19.28	254.0 72.4853	0.0 OPEN
 P139	J208	J211	73.66	406.0 68.7185	0.0 OPEN
 P14	J24	J39	151.39	406.0 72.0091	0.0 OPEN
 P140	J219	J220	222.3	101.99999999999999 107.8347	0.0 OPEN
 P141	J221	J51	169.94	101.99999999999999 103.7881	0.0 OPEN
 P142	J37	J93	16.61	152.4 85.3907	0.0 OPEN
 P144	J382	T6	130.79	76.0 99.9191	0.0 OPEN
 P147	J232	J231	60.08	203.0 92.837	0.0 OPEN
 P148	J233	J234	561.69	305.00000000000006 96.4394	0.0 OPEN
 P15	J39	T1	395.29	406.0 90.483	0.0 OPEN
 P150	J82	J50	93.19000000000001	152.0 103.1527	0.0 OPEN
 P154	J245	J66	170.64	152.0 108.8316	0.0 OPEN
 P155	J60	J219	59.379999999999995	101.6 105.7092	0.0 OPEN
 P156	J242	J243	80.34	101.99999999999999 110.8685	0.0 OPEN
 P157	J244	J245	232.93	101.99999999999999 102.901	0.0 OPEN
 P158	J236	J246	69.88	76.0 105.0724	0.0 OPEN
 P159	J204	J336	118.78000000000002	203.0 80.1472	0.0 OPEN
 P16	J1208	J353	252.34000000000003	101.99999999999999 97.2483	0.0 OPEN
 P160	J248	J246	68.68	76.0 104.6279	0.0 OPEN
 P161	J361	J355	40.31	76.0 90.0133	0.0 OPEN
 P162	J249	J85	190.66999999999996	152.0 98.7606	0.0 OPEN
 P163	J251	J90	67.74	203.0 94.2302	0.0 OPEN
 P165	J135	J234	143.81	305.00000000000006 92.9343	0.0 OPEN
 P166	J352	J382	235.0	101.6 93.6027	0.0 OPEN
 P17	J408	J1025	32.42	508.0 77.2813	0.0 OPEN
 P174	J6	J7	278.59	101.99999999999999 89.3207	0.0 OPEN
 P177	J305	J303	56.8	101.99999999999999 100.6056	0.0 OPEN
 P18	J1025	J411	283.3	508.0 100.3	0.0 OPEN
 P184	J1208	J352	59.379999999999995	101.6 95.9147	0.0 OPEN
 P19	J411	J1056	750.87	508.0 97.7	0.0 OPEN
 P195	J7	J4	144.33	76.0 80.6314	0.0 OPEN
 P2	J175	J181	295.25	203.0 62.0478	0.0 OPEN
 P20	J1056	J214	579.67	508.0 89.6725	0.0 OPEN
 P201	J7	J8	102.19	76.0 96.6278	0.0 OPEN
 P21	J214	J212	176.47999999999996	406.0 86.6937	0.0 OPEN
 P211	J295	J296	202.33	76.0 84.0517	0.0 OPEN
 P215	J419	T2	140.76	254.0 81.4235	0.0 OPEN
 P218	J310	J311	54.55	101.99999999999999 81.7714	0.0 OPEN
 P219	J312	J313	67.98	101.99999999999999 86.836	0.0 OPEN
 P22	J159	J192	567.3	406.0 81.1136	0.0 OPEN
 P220	J314	J315	68.33	76.0 93.7376	0.0 OPEN
 P223	J318	J319	108.98	203.0 93.217	0.0 OPEN
 P225	J321	J322	120.77	101.99999999999999 92.6855	0.0 OPEN
 P228	J327	J328	42.72	76.0 99.2889	0.0 OPEN
 P23	J192	J196	316.91	508.0 77.1626	0.0 OPEN
 P230	J330	J327	114.61	76.0 77.3953	0.0 OPEN
 P231	J331	J330	12.21	76.0 98.4154	0.0 OPEN
 P233	J333	J334	58.66	76.0 97.2959	0.0 OPEN
 P234	J335	J333	41.63	76.0 87.2098	0.0 OPEN
 P235	J336	J337	92.73999999999998	76.0 84.3219	0.0 OPEN
 P237	J415	J441	12.010000000000002	305.00000000000006 100.0	0.0 OPEN
 P238	J441	J416	12.589999999999998	304.8 104.74	0.0 OPEN
 P24	J177	J194	71.05	508.0 88.6208	0.0 OPEN
 P241	J344	J345	49.46	101.99999999999999 114.8367	0.0 OPEN
 P242	J36	J29	25.06	152.4 99.015	0.0 OPEN
 P243	J36	J88	57.08	203.2 82.7962	0.0 OPEN
 P245	J87	J84	18.65	152.4 120.3989	0.0 OPEN
 P246	J249	J250	56.94	152.4 121.5968	0.0 OPEN
 P248	J250	J245	6.96	152.4 110.0673	0.0 OPEN
 P249	J359	J360	28.43	50.99999999999999 85.3808	0.0 OPEN
 P25	J196	J194	4.3	508.0 74.3773	0.0 OPEN
 P251	J329	J362	11.49	152.0 103.7333	0.0 OPEN
 P252	J363	J364	135.44	305.00000000000006 82.3004	0.0 OPEN
 P255	J369	J370	76.14	50.99999999999999 71.4672	0.0 OPEN
 P256	J371	J364	55.17	305.00000000000006 94.8591	0.0 OPEN
 P258	J372	J373	79.53000000000002	101.99999999999999 75.5123	0.0 OPEN
 P259	J374	J375	136.09	101.99999999999999 83.0936	0.0 OPEN
 P26	J163	J1	22.94	508.0 88.0075	0.0 OPEN
 P264	J242	J241	11.729999999999999	101.6 112.5051	0.0 OPEN
 P266	J250	J242	55.29	101.6 107.0558	0.0 OPEN
 P267	J572	J147	344.61999999999995	152.4 95.5913	0.0 OPEN
 P268	J130	J149	146.46	152.4 86.8378	0.0 OPEN
 P27	J1	J161	163.63	254.0 69.1055	0.0 OPEN
 P270	J149	J150	88.36	101.6 92.7697	0.0 OPEN
 P272	J8	J9	143.88	101.99999999999999 73.9529	0.0 OPEN
 P275	J149	J148	172.96	152.4 98.1649	0.0 OPEN
 P28	J1	J164	117.42	152.0 88.2667	0.0 OPEN
 P280	J407	J401	333.4	203.0 88.343	0.0 OPEN
 P282	J436	J10	131.93	101.99999999999999 86.7204	0.0 OPEN
 P284	J574	J151	198.97	76.2 89.125	0.0 OPEN
 P285	J151	J153	130.71	76.2 90.1826	0.0 OPEN
 P286	J169	J182	155.58	101.6 90.0054	0.0 OPEN
 P287	J419	J420	45.12	305.0 78.3493	0.0 OPEN
 P288	J169	J222	226.74	76.2 85.0527	0.0 OPEN
 P29	J1	J165	20.51	152.0 89.4838	0.0 OPEN
 P290	J222	J224	46.28000000000001	76.2 89.4448	0.0 OPEN
 P291	J425	J426	132.94	305.00000000000006 107.08	0.0 OPEN
 P292	J416	J427	13.54	305.00000000000006 97.2663	0.0 OPEN
 P293	J427	J425	125.2	305.00000000000006 92.1591	0.0 OPEN
 P294	J428	J429	101.2	101.99999999999999 79.9651	0.0 OPEN
 P295	J10	J435	133.23	76.0 72.4092	0.0 OPEN
 P296	J432	J433	231.87	76.0 82.9572	0.0 OPEN
 P297	J411	J438	42.53	406.0 73.0	0.0 OPEN
 P298	J438	J434	40.10999999999999	305.00000000000006 84.5511	0.0 OPEN
 P299	J436	J429	61.51	101.99999999999999 87.7099	0.0 OPEN
 P3	J181	J173	136.52	300.0 73.6491	0.0 OPEN
 P30	J161	J166	40.89	254.0 86.7096	0.0 OPEN
 P301	J434	J11	45.31	305.00000000000006 85.1892	0.0 OPEN
 P302	J11	J433	178.28000000000003	305.00000000000006 80.3402	0.0 OPEN
 P303	J428	J439	131.94	76.0 88.3345	0.0 OPEN
 P304	J222	J152	268.74	101.6 89.3927	0.0 OPEN
 P305	J407	J441	43.41	203.0 90.7993	0.0 OPEN
 P307	J433	J12	47.3	305.00000000000006 60.5122	0.0 OPEN
 P308	J426	J363	334.57	305.00000000000006 88.0772	0.0 OPEN
 P309	J235	J230	128.8	101.6 94.956	0.0 OPEN
 P31	J171	J186	144.67	152.0 108.7731	0.0 OPEN
 P310	J269	J156	9.0	610.0000000000001 87.268	0.0 OPEN
 P316	R1	J280	11.62	610.0000000000001 70.4519	0.0 OPEN
 P319	J274	J269	10.54	610.0000000000001 76.5927	0.0 OPEN
 P32	J186	J2	84.44	152.0 103.5584	0.0 OPEN
 P320	J273	J269	11.47	610.0000000000001 76.5188	0.0 OPEN
 P322	J280	J285	11.5	610.0000000000001 89.4331	0.0 OPEN
 P323	J280	J276	11.47	610.0000000000001 84.6872	0.0 OPEN
 P329	J503	J501	134.52	152.0 100.1836	0.0 OPEN
 P33	J1219	J179	22.81	254.0 73.036	0.0 OPEN
 P330	J501	J499	66.79	76.0 96.4229	0.0 OPEN
 P331	J486	J487	93.46	50.99999999999999 93.1933	0.0 OPEN
 P336	J495	J496	182.99	152.0 92.1737	0.0 OPEN
 P337	J497	J494	20.49	305.00000000000006 100.0	0.0 OPEN
 P338	J499	J500	74.38	76.0 100.3553	0.0 OPEN
 P339	J501	J502	307.49	101.99999999999999 88.653	0.0 OPEN
 P34	J179	J110	98.0	508.0 78.506	0.0 OPEN
 P340	J494	J496	96.21	305.00000000000006 101.0824	0.0 OPEN
 P341	J496	J498	189.74	305.00000000000006 94.6355	0.0 OPEN
 P343	J495	J576	111.65	152.0 100.2909	0.0 OPEN
 P344	J576	J571	45.25999999999999	152.0 85.9092	0.0 OPEN
 P346	J499	J504	54.90999999999999	50.99999999999999 93.9134	0.0 OPEN
 P347	J509	T4	385.56	305.00000000000006 96.2352	0.0 OPEN
 P348	J503	J509	42.47	305.00000000000006 88.7295	0.0 OPEN
 P349	J503	J511	39.12	305.00000000000006 97.0124	0.0 OPEN
 P35	J50	J51	64.56	152.0 84.3826	0.0 OPEN
 P350	J509	J240	400.16	203.0 99.8598	0.0 OPEN
 P37	J348	J52	180.61	203.0 97.8039	0.0 OPEN
 P372	J219	J86	6.42	101.6 113.1147	0.0 OPEN
 P374	J287	J288	15.83	254.0 91.9156	0.0 OPEN
 P375	J288	J300	7.79	254.0 75.4894	0.0 OPEN
 P376	J300	J299	6.64	254.0 102.6856	0.0 OPEN
 P378	J292	J256	6.47	254.0 112.4497	0.0 OPEN
 P379	J287	J289	6.430000000000001	254.0 101.7753	0.0 OPEN
 P38	J55	J56	169.49	76.0 106.465	0.0 OPEN
 P380	J289	J290	4.79	254.0 87.8132	0.0 OPEN
 P381	J291	J415	5.53	304.8 119.2071	0.0 OPEN
 P383	J571	J491	19.56	152.0 80.1493	0.0 OPEN
 P384	J491	J575	26.14	76.0 101.9127	0.0 OPEN
 P385	J498	J134	106.53	305.00000000000006 76.0237	0.0 OPEN
 P386	J134	J576	8.12	152.0 79.9011	0.0 OPEN
 P39	J490	J488	190.12	101.99999999999999 95.4376	0.0 OPEN
 P397	J332	J301	13.16	203.2 87.4272	0.0 OPEN
 P398	J301	J302	6.75	152.0 91.0504	0.0 OPEN
 P399	J302	J307	9.71	203.2 81.4136	0.0 OPEN
 P40	J59	J60	143.64	101.99999999999999 107.9144	0.0 OPEN
 P402	J307	J309	6.12	203.2 89.1549	0.0 OPEN
 P403	J304	J306	6.86	152.4 111.4725	0.0 OPEN
 P409	J306	J87	26.38	152.4 89.8979	0.0 OPEN
 P410	J323	J317	7.7	203.2 85.6677	0.0 OPEN
 P42	J54	J73	32.93	152.0 114.9191	0.0 OPEN
 P424	J317	J384	27.8	203.2 124.9857	0.0 OPEN
 P43	J64	J65	36.18	203.0 88.5373	0.0 OPEN
 P44	J66	J67	247.65	152.0 115.1682	0.0 OPEN
 P443	J13	J12	67.31	305.00000000000006 85.576	0.0 OPEN
 P445	J417	J421	7.8	254.0 86.2106	0.0 OPEN
 P450	J418	J422	19.47	254.0 96.9651	0.0 OPEN
 P46	J69	J70	70.86	101.99999999999999 112.6626	0.0 OPEN
 P465	J421	J14	18.2	254.0 86.5654	0.0 OPEN
 P467	J422	J420	15.17	254.0 96.1541	0.0 OPEN
 P468	J420	J287	31.29	203.0 105.2734	0.0 OPEN
 P48	J73	J71	28.98	152.0 113.5196	0.0 OPEN
 P482	J9	J3	321.89	152.0 78.9039	0.0 OPEN
 P484	J438	J13	336.57	203.0 79.98	0.0 OPEN
 P49	J72	J74	134.92	152.0 121.705	0.0 OPEN
 P492	J86	J243	157.32	101.6 114.1137	0.0 OPEN
 P5	J1223	J218	588.97	406.0 83.5619	0.0 OPEN
 P500	J90	J252	24.23	203.0 112.6228	0.0 OPEN
 P501	J571	J572	11.32	152.4 111.4535	0.0 OPEN
 P502	J89	J574	9.19	76.2 99.5946	0.0 OPEN
 P51	J68	J77	57.47	101.99999999999999 92.2379	0.0 OPEN
 P510	J16	J15	193.37	101.99999999999999 104.9547	0.0 OPEN
 P52	J78	J51	83.26	101.99999999999999 89.6542	0.0 OPEN
 P524	J511	J580	170.54000000000002	305.00000000000006 96.2278	0.0 OPEN
 P527	J580	J497	149.04	305.00000000000006 73.1242	0.0 OPEN
 P529	J278	J281	212.31	101.99999999999999 103.9178	0.0 OPEN
 P53	J384	J1208	10.32	203.0 87.5607	0.0 OPEN
 P54	J488	J491	111.67	50.99999999999999 92.3979	0.0 OPEN
 P55	J82	J83	99.86	76.0 87.653	0.0 OPEN
 P57	J84	J85	288.77	152.0 99.5967	0.0 OPEN
 P58	J86	J84	503.91	101.99999999999999 100.8492	0.0 OPEN
 P596	J56	J58	76.39	76.0 112.8056	0.0 OPEN
 P597	J281	J284	79.68	101.99999999999999 101.1212	0.0 OPEN
 P6	J180	J171	199.39	152.0 94.6451	0.0 OPEN
 P609	J57	J56	86.07	76.0 111.6336	0.0 OPEN
 P610	J15	J17	206.58000000000004	76.0 95.7998	0.0 OPEN
 P63	J96	J95	165.95	254.0 88.7273	0.0 OPEN
 P633	J54	J67	173.88000000000002	152.0 119.1333	0.0 OPEN
 P64	J96	J97	126.63	203.0 80.2477	0.0 OPEN
 P65	J353	J351	164.93	101.99999999999999 101.9473	0.0 OPEN
 P67	J97	J102	330.24	203.0 74.1138	0.0 OPEN
 P670	J17	J18	54.41	152.0 98.7041	0.0 OPEN
 P671	J18	J16	62.97	152.0 94.8379	0.0 OPEN
 P68	J195	J188	302.74	305.00000000000006 83.2209	0.0 OPEN
 P69	J1223	J40	103.63	152.0 72.3518	0.0 OPEN
 P697	J16	J19	88.89	101.99999999999999 97.7625	0.0 OPEN
 P7	J218	J211	60.22	508.0 78.4537	0.0 OPEN
 P70	J40	J375	88.36	152.0 72.8439	0.0 OPEN
 P71	J188	J191	419.4	254.0 84.7287	0.0 OPEN
 P72	J95	J110	247.46	305.00000000000006 85.0357	0.0 OPEN
 P724	J78	J268	92.71999999999998	152.0 96.707	0.0 OPEN
 P725	J78	J295	117.32	152.0 105.2924	0.0 OPEN
 P752	J297	T7	70.36	152.0 106.1657	0.0 OPEN
 P753	J297	J221	71.91	152.0 89.5241	0.0 OPEN
 P754	J19	J15	92.49	50.99999999999999 84.8277	0.0 OPEN
 P755	J140	J141	47.12	305.00000000000006 114.1299	0.0 OPEN
 P756	J123	J141	41.66	305.00000000000006 107.9167	0.0 OPEN
 P757	J1024	J142	568.43	305.00000000000006 99.8313	0.0 OPEN
 P758	J1025	J1024	102.21	305.00000000000006 93.3573	0.0 OPEN
 P759	J221	J298	97.19	152.0 104.435	0.0 OPEN
 P760	J298	J312	88.54	152.0 101.8544	0.0 OPEN
 P761	J312	J83	171.27	152.0 96.9921	0.0 OPEN
 P763	J141	J157	387.5899999999999	305.00000000000006 112.2055	0.0 OPEN
 P766	J318	J303	37.85	152.0 95.0373	0.0 OPEN
 P767	J157	J94	227.49999999999997	305.00000000000006 109.3149	0.0 OPEN
 P768	J157	J158	217.03	254.0 116.5116	0.0 OPEN
 P769	J94	J168	154.26	305.00000000000006 110.6186	0.0 OPEN
 P771	J168	J170	69.36	203.0 99.6322	0.0 OPEN
 P772	J168	J176	215.02	305.00000000000006 85.8031	0.0 OPEN
 P775	J176	J178	129.42	203.0 108.382	0.0 OPEN
 P776	J178	J184	144.5	101.99999999999999 114.3497	0.0 OPEN
 P777	J176	J185	402.31	305.00000000000006 111.7656	0.0 OPEN
 P779	J185	J190	524.49	203.0 87.9098	0.0 OPEN
 P780	J18	J406	153.56	203.0 104.9547	0.0 OPEN
 P781	J83	J318	130.18	152.0 90.9141	0.0 OPEN
 P783	J190	J197	674.96	203.0 115.0802	0.0 OPEN
 P784	J213	J190	88.96	101.99999999999999 98.432	0.0 OPEN
 P785	J190	J215	184.71	101.99999999999999 89.6475	0.0 OPEN
 P786	J197	J216	166.27	203.0 110.0002	0.0 OPEN
 P787	J216	T3	127.08	203.0 130.1224	0.0 OPEN
 P788	J216	J227	107.85	152.0 113.9141	0.0 OPEN
 P789	J1056	J366	285.95	203.0 74.9687	0.0 OPEN
 P791	J227	J238	82.49999999999999	152.0 115.9461	0.0 OPEN
 P794	J238	J239	39.04	203.0 123.9466	0.0 OPEN
 P795	J239	J255	129.41	203.0 97.7803	0.0 OPEN
 P796	J256	J238	22.42	203.0 89.8762	0.0 OPEN
 P797	J227	J258	21.64	101.99999999999999 117.0542	0.0 OPEN
 P798	J255	J260	684.0700000000002	203.0 116.0879	0.0 OPEN
 P8	J218	J212	11.35	406.0 76.0774	0.0 OPEN
 P800	J344	J1170	15.93	203.0 109.6676	0.0 OPEN
 P801	J1170	J347	9.47	203.0 104.4689	0.0 OPEN
 P804	J1169	J265	68.27	101.99999999999999 103.0053	0.0 OPEN
 P805	J265	J266	96.57	152.0 114.5602	0.0 OPEN
 P806	J266	J260	32.51	152.0 103.899	0.0 OPEN
 P807	J260	J350	162.82	203.0 100.1493	0.0 OPEN
 P808	J83	J311	253.47	203.0 92.0642	0.0 OPEN
 P809	J321	J324	17.35	101.99999999999999 109.3503	0.0 OPEN
 P810	J406	J394	64.3	203.0 88.939	0.0 OPEN
 P811	J320	J321	50.17	101.99999999999999 89.5672	0.0 OPEN
 P813	J328	J320	30.85	152.0 76.0416	0.0 OPEN
 P815	J329	J328	50.52	102.0 84.3422	0.0 OPEN
 P817	J1158	J1153	253.3	203.0 72.6581	0.0 OPEN
 P819	J1153	J1157	8.02	203.0 105.0733	0.0 OPEN
 P821	J354	J267	64.78	101.99999999999999 83.9452	0.0 OPEN
 P822	J267	J353	11.710000000000003	101.99999999999999 99.5936	0.0 OPEN
 P823	J236	J237	18.84	76.0 113.3618	0.0 OPEN
 P826	J237	J244	335.2900000000001	76.0 99.1486	0.0 OPEN
 P827	J244	J247	119.07	76.0 103.7402	0.0 OPEN
 P83	J155	J160	15.139999999999999	610.0000000000001 75.6638	0.0 OPEN
 P830	J247	J248	89.29999999999998	76.0 99.044	0.0 OPEN
 P831	J248	J249	62.20000000000001	76.0 86.2918	0.0 OPEN
 P84	J183	J187	148.63	203.0 97.4135	0.0 OPEN
 P840	J311	J320	235.28000000000003	203.0 97.7704	0.0 OPEN