
[TITLE]


[JUNCTIONS]
JUNCTION-0          376.070007
JUNCTION-1          192.000000
JUNCTION-2          363.140015
JUNCTION-3          428.070007
JUNCTION-4          477.809998
JUNCTION-5          494.230011
JUNCTION-6          505.000000
JUNCTION-7          535.229980
JUNCTION-8          493.420013
JUNCTION-9          488.290009
JUNCTION-10          333.619995
JUNCTION-11          344.100006
JUNCTION-12          379.500000
JUNCTION-13          325.950012
JUNCTION-14          416.850006
JUNCTION-15          423.489990
JUNCTION-16          383.000000
JUNCTION-17          385.059998
JUNCTION-18          478.149994
JUNCTION-19          558.929993
JUNCTION-20          617.729980
JUNCTION-21          652.419983
JUNCTION-22          625.960022
JUNCTION-23          604.340027
JUNCTION-24          636.609985
JUNCTION-25          653.929993
JUNCTION-26          683.429993
JUNCTION-27          690.650024
JUNCTION-28          701.690002
JUNCTION-29          846.280029
JUNCTION-30          636.000000
JUNCTION-31          600.429993
JUNCTION-32          625.849976
JUNCTION-33          622.780029
JUNCTION-34          200.000000
JUNCTION-35          651.969971
JUNCTION-36          634.109985
JUNCTION-37          677.049988
JUNCTION-38          646.510010
JUNCTION-39          703.190002
JUNCTION-40          741.630005
JUNCTION-41          700.219971
JUNCTION-42          728.049988
JUNCTION-43          653.090027
JUNCTION-44          678.500000
JUNCTION-45          747.320007
JUNCTION-46          820.239990
JUNCTION-47          640.469971
JUNCTION-48          637.450012
JUNCTION-49          623.900024
JUNCTION-50          611.080017
JUNCTION-51          623.679993
JUNCTION-52          613.270020
JUNCTION-53          607.630005
JUNCTION-54          602.109985
JUNCTION-55          603.340027
JUNCTION-56          606.940002
JUNCTION-57          617.969971
JUNCTION-58          610.210022
JUNCTION-59          620.950012
JUNCTION-60          623.989990
JUNCTION-61          625.380005
JUNCTION-62          625.400024
JUNCTION-63          623.950012
JUNCTION-64          623.130005
JUNCTION-65          619.369995
JUNCTION-66          619.719971
JUNCTION-67          624.500000
JUNCTION-68          617.080017
JUNCTION-69          626.000000
JUNCTION-70          619.109985
JUNCTION-71          632.179993
JUNCTION-72          622.349976
JUNCTION-73          620.369995
JUNCTION-74          622.340027
JUNCTION-75          629.159973
JUNCTION-76          622.549988
JUNCTION-77          624.640015
JUNCTION-78          618.020020
JUNCTION-79          617.890015
JUNCTION-80          616.890015
JUNCTION-81          623.580017
JUNCTION-82          618.760010
JUNCTION-83          617.710022
JUNCTION-84          619.929993
JUNCTION-85          620.250000
JUNCTION-86          623.479980
JUNCTION-87          622.260010
JUNCTION-88          621.690002
JUNCTION-89          626.809998
JUNCTION-90          644.090027
JUNCTION-91          637.440002
JUNCTION-92          628.239990
JUNCTION-93          643.739990
JUNCTION-94          633.479980
JUNCTION-95          630.859985
JUNCTION-96          629.140015
JUNCTION-97          628.989990
JUNCTION-98          643.049988
JUNCTION-99          641.890015
JUNCTION-100          637.900024
JUNCTION-101          645.090027
JUNCTION-102          1094.069946
JUNCTION-103          1031.729980
JUNCTION-104          860.640015
JUNCTION-105          0.000000
JUNCTION-106          0.000000
JUNCTION-109          0.000000
JUNCTION-110          0.000000
JUNCTION-111          418.000000
JUNCTION-112          418.000000
JUNCTION-113          359.000000
JUNCTION-114          359.000000
JUNCTION-115          533.000000
JUNCTION-116          533.000000
JUNCTION-117          404.000000
JUNCTION-118          404.000000
JUNCTION-119          849.000000
JUNCTION-120          849.000000
JUNCTION-121          957.000000
JUNCTION-122          957.000000
JUNCTION-123          758.000000
JUNCTION-124          758.000000
JUNCTION-125          434.000000
JUNCTION-126          434.000000
JUNCTION-128          0.000000
[RESERVOIRS]
RESERVOIR-129          425.000000
[TANKS]
TANK-130          843.900024          15.159000          0.000000          32.099998          186.000000          0.000000
TANK-131          1137.099976          17.945000          0.000000          41.900002          106.000000          0.000000
[PIPES]
LINK-0          JUNCTION-118          JUNCTION-126          7401.000000          20.453411          138.000000          0.000000          Open
LINK-1          JUNCTION-17          JUNCTION-0          359.000000          7.999894          139.000000          0.000000          Open
LINK-2          JUNCTION-0          JUNCTION-2          324.000000          7.999894          139.000000          0.000000          Open
LINK-3          JUNCTION-3          JUNCTION-4          697.000000          7.999810          139.000000          0.000000          Open
LINK-6          JUNCTION-5          JUNCTION-4          574.000000          7.999807          139.000000          0.000000          Open
LINK-7          JUNCTION-5          JUNCTION-6          238.000000          7.999912          139.000000          0.000000          Open
LINK-8          JUNCTION-6          JUNCTION-7          502.000000          8.000000          139.000000          0.000000          Open
LINK-9          JUNCTION-8          JUNCTION-6          396.000000          7.999894          139.000000          0.000000          Open
LINK-10          JUNCTION-9          JUNCTION-8          377.000000          7.999894          139.000000          0.000000          Open
LINK-11          JUNCTION-18          JUNCTION-9          308.000000          7.999947          139.000000          0.000000          Open
LINK-12          JUNCTION-9          JUNCTION-8          837.000000          7.999841          139.000000          0.000000          Open
LINK-13          JUNCTION-2          JUNCTION-113          56.000000          8.000000          138.000000          0.000000          Open
LINK-14          JUNCTION-114          JUNCTION-10          599.000000          7.999901          138.000000          0.000000          Open
LINK-15          JUNCTION-1          JUNCTION-109          125.000000          16.000000          138.000000          0.000000          Open
LINK-16          JUNCTION-10          JUNCTION-11          409.000000          7.999841          138.000000          0.000000          Open
LINK-17          JUNCTION-110          JUNCTION-34          124.000000          12.000000          138.000000          0.000000          Open
LINK-18          JUNCTION-128          JUNCTION-1          320.000000          30.000000          138.000000          0.000000          Open
LINK-19          RESERVOIR-129          JUNCTION-128          51.000000          30.000000          138.000000          0.000000          Open
LINK-20          JUNCTION-12          JUNCTION-13          597.000000          8.000000          140.000000          0.000000          Open
LINK-21          JUNCTION-12          JUNCTION-11          671.000000          7.999810          138.000000          0.000000          Open
LINK-22          JUNCTION-14          JUNCTION-12          332.000000          7.999863          139.000000          0.000000          Open
LINK-23          JUNCTION-5          JUNCTION-15          2089.000000          7.999852          139.000000          0.000000          Open
LINK-24          JUNCTION-15          JUNCTION-3          50.000000          8.000000          139.000000          0.000000          Open
LINK-25          JUNCTION-15          JUNCTION-111          57.000000          8.000000          140.000000          0.000000          Open
LINK-26          JUNCTION-112          JUNCTION-14          69.000000          8.000000          140.000000          0.000000          Open
LINK-27          JUNCTION-14          JUNCTION-16          928.000000          8.000000          140.000000          0.000000          Open
LINK-28          JUNCTION-17          JUNCTION-18          1382.000000          16.000290          138.000000          0.000000          Open
LINK-29          JUNCTION-18          JUNCTION-116          731.000000          16.000151          138.000000          0.000000          Open
LINK-30          JUNCTION-0          JUNCTION-4          1570.000000          7.999764          139.000000          0.000000          Open
LINK-31          JUNCTION-29          JUNCTION-28          1402.000000          24.000488          138.000000          0.000000          Open
LINK-32          JUNCTION-45          JUNCTION-46          1811.000000          7.999830          140.000000          0.000000          Open
LINK-33          JUNCTION-23          JUNCTION-124          1845.000000          12.000000          140.000000          0.000000          Open
LINK-34          JUNCTION-122          JUNCTION-123          2433.000000          12.000000          140.000000          0.000000          Open
LINK-35          JUNCTION-34          JUNCTION-30          10260.284180          24.000978          138.000000          0.000000          Open
LINK-36          JUNCTION-41          JUNCTION-39          1066.000000          7.999947          138.000000          0.000000          Open
LINK-37          JUNCTION-2          JUNCTION-3          1066.000000          7.999796          139.000000          0.000000          Open
LINK-38          JUNCTION-11          JUNCTION-10          1000.000000          7.999805          138.000000          0.000000          Open
LINK-39          JUNCTION-117          JUNCTION-17          1537.000000          16.000074          138.000000          0.000000          Open
LINK-40          JUNCTION-20          JUNCTION-21          2125.000000          20.000593          138.000000          0.000000          Open
LINK-41          JUNCTION-20          JUNCTION-115          3227.000000          16.000326          138.000000          0.000000          Open
LINK-42          JUNCTION-19          JUNCTION-125          2125.000000          20.000168          138.000000          0.000000          Open
LINK-43          JUNCTION-19          JUNCTION-20          942.000000          20.000000          138.000000          0.000000          Open
LINK-44          JUNCTION-21          JUNCTION-22          1257.000000          20.000439          138.000000          0.000000          Open
LINK-45          JUNCTION-22          JUNCTION-23          1101.000000          24.000738          138.000000          0.000000          Open
LINK-46          JUNCTION-23          JUNCTION-30          1175.000000          24.000727          138.000000          0.000000          Open
LINK-47          JUNCTION-22          JUNCTION-24          292.000000          24.000000          138.000000          0.000000          Open
LINK-48          JUNCTION-24          JUNCTION-25          178.000000          24.000000          138.000000          0.000000          Open
LINK-49          JUNCTION-25          JUNCTION-26          336.000000          24.000000          138.000000          0.000000          Open
LINK-50          JUNCTION-26          JUNCTION-27          76.000000          24.000000          138.000000          0.000000          Open
LINK-51          JUNCTION-27          JUNCTION-28          144.000000          24.000000          138.000000          0.000000          Open
LINK-52          JUNCTION-30          JUNCTION-31          1146.000000          12.000000          138.000000          0.000000          Open
LINK-53          JUNCTION-31          JUNCTION-32          1699.000000          12.000000          138.000000          0.000000          Open
LINK-54          JUNCTION-32          JUNCTION-33          645.000000          12.000000          138.000000          0.000000          Open
LINK-55          JUNCTION-33          JUNCTION-57          754.000000          8.413870          138.000000          0.000000          Open
LINK-56          JUNCTION-19          JUNCTION-35          1113.000000          7.999903          140.000000          0.000000          Open
LINK-57          JUNCTION-35          JUNCTION-36          507.000000          8.000000          140.000000          0.000000          Open
LINK-58          JUNCTION-35          JUNCTION-37          246.000000          7.999947          140.000000          0.000000          Open
LINK-59          JUNCTION-37          JUNCTION-20          739.000000          7.999947          138.000000          0.000000          Open
LINK-60          JUNCTION-35          JUNCTION-38          552.000000          8.000000          140.000000          0.000000          Open
LINK-61          JUNCTION-37          JUNCTION-39          348.000000          8.000000          138.000000          0.000000          Open
LINK-62          JUNCTION-39          JUNCTION-40          998.000000          8.296935          139.000000          0.000000          Open
LINK-63          JUNCTION-40          JUNCTION-41          619.000000          8.000000          138.000000          0.000000          Open
LINK-64          JUNCTION-40          JUNCTION-42          538.000000          7.999947          138.000000          0.000000          Open
LINK-65          JUNCTION-42          JUNCTION-41          668.000000          8.000000          138.000000          0.000000          Open
LINK-66          JUNCTION-42          JUNCTION-27          2581.000000          8.019783          138.000000          0.000000          Open
LINK-67          JUNCTION-24          JUNCTION-43          544.000000          8.000000          140.000000          0.000000          Open
LINK-68          JUNCTION-43          JUNCTION-25          420.000000          8.000000          140.000000          0.000000          Open
LINK-69          JUNCTION-43          JUNCTION-44          373.000000          7.999947          140.000000          0.000000          Open
LINK-70          JUNCTION-44          JUNCTION-26          556.000000          8.000000          140.000000          0.000000          Open
LINK-71          JUNCTION-44          JUNCTION-28          752.000000          7.999947          140.000000          0.000000          Open
LINK-72          JUNCTION-29          TANK-130          242.000000          24.000000          138.000000          0.000000          Open
LINK-73          JUNCTION-21          JUNCTION-47          91.000000          8.000000          139.000000          0.000000          Open
LINK-74          JUNCTION-47          JUNCTION-48          805.000000          8.000000          139.000000          0.000000          Open
LINK-75          JUNCTION-48          JUNCTION-49          574.000000          8.000000          139.000000          0.000000          Open
LINK-76          JUNCTION-49          JUNCTION-22          158.000000          8.000000          139.000000          0.000000          Open
LINK-77          JUNCTION-49          JUNCTION-50          577.000000          7.999947          139.000000          0.000000          Open
LINK-78          JUNCTION-50          JUNCTION-51          388.000000          8.000000          139.000000          0.000000          Open
LINK-79          JUNCTION-51          JUNCTION-48          236.000000          8.000000          139.000000          0.000000          Open
LINK-80          JUNCTION-51          JUNCTION-52          393.000000          8.000000          139.000000          0.000000          Open
LINK-81          JUNCTION-52          JUNCTION-47          549.000000          7.999947          139.000000          0.000000          Open
LINK-82          JUNCTION-52          JUNCTION-50          1381.000000          7.999947          139.000000          0.000000          Open
LINK-83          JUNCTION-23          JUNCTION-53          919.000000          9.999941          139.000000          0.000000          Open
LINK-84          JUNCTION-53          JUNCTION-54          386.000000          9.999970          139.000000          0.000000          Open
LINK-85          JUNCTION-54          JUNCTION-31          229.000000          10.000000          139.000000          0.000000          Open
LINK-86          JUNCTION-53          JUNCTION-56          232.000000          8.000000          140.000000          0.000000          Open
LINK-87          JUNCTION-56          JUNCTION-55          390.000000          8.000000          140.000000          0.000000          Open
LINK-88          JUNCTION-55          JUNCTION-54          254.000000          8.000000          140.000000          0.000000          Open
LINK-89          JUNCTION-55          JUNCTION-56          873.000000          7.999947          140.000000          0.000000          Open
LINK-90          JUNCTION-32          JUNCTION-57          945.000000          7.999947          140.000000          0.000000          Open
LINK-91          JUNCTION-57          JUNCTION-33          230.000000          8.000000          140.000000          0.000000          Open
LINK-92          JUNCTION-31          JUNCTION-58          1155.000000          10.000000          139.000000          0.000000          Open
LINK-93          JUNCTION-58          JUNCTION-59          413.000000          8.000000          140.000000          0.000000          Open
LINK-94          JUNCTION-59          JUNCTION-60          943.000000          7.999947          140.000000          0.000000          Open
LINK-95          JUNCTION-60          JUNCTION-59          196.000000          8.000000          140.000000          0.000000          Open
LINK-96          JUNCTION-60          JUNCTION-61          133.000000          8.000000          140.000000          0.000000          Open
LINK-97          JUNCTION-61          JUNCTION-62          138.000000          8.000000          140.000000          0.000000          Open
LINK-98          JUNCTION-62          JUNCTION-63          187.000000          8.000000          140.000000          0.000000          Open
LINK-99          JUNCTION-63          JUNCTION-64          134.000000          8.000000          139.000000          0.000000          Open
LINK-100          JUNCTION-64          JUNCTION-65          300.000000          8.000000          139.000000          0.000000          Open
LINK-101          JUNCTION-65          JUNCTION-66          65.000000          8.000000          139.000000          0.000000          Open
LINK-102          JUNCTION-66          JUNCTION-67          420.000000          7.999947          139.000000          0.000000          Open
LINK-103          JUNCTION-67          JUNCTION-61          209.000000          8.000000          139.000000          0.000000          Open
LINK-104          JUNCTION-66          JUNCTION-67          398.000000          7.999947          139.000000          0.000000          Open
LINK-105          JUNCTION-68          JUNCTION-58          381.000000          10.000000          139.000000          0.000000          Open
LINK-106          JUNCTION-64          JUNCTION-65          872.000000          7.999947          140.000000          0.000000          Open
LINK-107          JUNCTION-65          JUNCTION-68          199.000000          8.000000          140.000000          0.000000          Open
LINK-108          JUNCTION-63          JUNCTION-62          713.000000          7.999947          140.000000          0.000000          Open
LINK-109          JUNCTION-68          JUNCTION-69          1095.000000          10.000000          139.000000          0.000000          Open
LINK-110          JUNCTION-69          JUNCTION-70          231.000000          8.000000          140.000000          0.000000          Open
LINK-111          JUNCTION-70          JUNCTION-71          695.000000          8.000000          140.000000          0.000000          Open
LINK-112          JUNCTION-70          JUNCTION-72          528.000000          8.000000          140.000000          0.000000          Open
LINK-113          JUNCTION-73          JUNCTION-69          938.000000          10.000000          139.000000          0.000000          Open
LINK-114          JUNCTION-72          JUNCTION-74          169.000000          8.000000          140.000000          0.000000          Open
LINK-115          JUNCTION-74          JUNCTION-73          127.000000          8.000000          140.000000          0.000000          Open
LINK-116          JUNCTION-72          JUNCTION-75          928.000000          7.999947          139.000000          0.000000          Open
LINK-117          JUNCTION-75          JUNCTION-74          336.000000          8.000000          139.000000          0.000000          Open
LINK-118          JUNCTION-75          JUNCTION-76          772.000000          8.000000          139.000000          0.000000          Open
LINK-119          JUNCTION-76          JUNCTION-77          417.000000          8.000000          139.000000          0.000000          Open
LINK-120          JUNCTION-77          JUNCTION-73          655.000000          10.000000          139.000000          0.000000          Open
LINK-121          JUNCTION-76          JUNCTION-78          167.000000          8.000000          139.000000          0.000000          Open
LINK-122          JUNCTION-78          JUNCTION-79          169.000000          8.000000          139.000000          0.000000          Open
LINK-123          JUNCTION-79          JUNCTION-80          195.000000          10.000000          139.000000          0.000000          Open
LINK-124          JUNCTION-80          JUNCTION-81          333.000000          10.000000          139.000000          0.000000          Open
LINK-125          JUNCTION-81          JUNCTION-77          60.000000          10.000000          139.000000          0.000000          Open
LINK-126          JUNCTION-78          JUNCTION-71          895.000000          8.000000          139.000000          0.000000          Open
LINK-127          JUNCTION-80          JUNCTION-82          372.000000          8.000000          139.000000          0.000000          Open
LINK-128          JUNCTION-82          JUNCTION-83          205.000000          8.000000          139.000000          0.000000          Open
LINK-129          JUNCTION-83          JUNCTION-84          430.000000          8.000000          139.000000          0.000000          Open
LINK-130          JUNCTION-84          JUNCTION-81          152.000000          8.000000          139.000000          0.000000          Open
LINK-131          JUNCTION-84          JUNCTION-83          1586.000000          7.999947          139.000000          0.000000          Open
LINK-132          JUNCTION-82          JUNCTION-85          174.000000          8.000000          139.000000          0.000000          Open
LINK-133          JUNCTION-85          JUNCTION-86          456.000000          8.000000          139.000000          0.000000          Open
LINK-134          JUNCTION-86          JUNCTION-87          341.000000          8.000000          139.000000          0.000000          Open
LINK-135          JUNCTION-87          JUNCTION-85          507.000000          8.000000          139.000000          0.000000          Open
LINK-136          JUNCTION-87          JUNCTION-88          195.000000          8.000000          139.000000          0.000000          Open
LINK-137          JUNCTION-88          JUNCTION-79          250.000000          10.000000          139.000000          0.000000          Open
LINK-138          JUNCTION-88          JUNCTION-89          191.000000          10.000000          139.000000          0.000000          Open
LINK-139          JUNCTION-89          JUNCTION-86          926.000000          7.999947          140.000000          0.000000          Open
LINK-140          JUNCTION-89          JUNCTION-90          464.000000          10.000000          139.000000          0.000000          Open
LINK-141          JUNCTION-90          JUNCTION-91          178.000000          10.000000          139.000000          0.000000          Open
LINK-142          JUNCTION-91          JUNCTION-92          167.000000          10.000000          139.000000          0.000000          Open
LINK-143          JUNCTION-92          JUNCTION-33          403.000000          10.000000          139.000000          0.000000          Open
LINK-144          JUNCTION-90          JUNCTION-93          143.000000          8.000000          139.000000          0.000000          Open
LINK-145          JUNCTION-93          JUNCTION-94          331.000000          8.000000          139.000000          0.000000          Open
LINK-146          JUNCTION-94          JUNCTION-92          157.000000          8.000000          139.000000          0.000000          Open
LINK-147          JUNCTION-93          JUNCTION-94          1805.000000          7.999947          139.000000          0.000000          Open
LINK-148          JUNCTION-92          JUNCTION-95          177.000000          8.000000          139.000000          0.000000          Open
LINK-149          JUNCTION-95          JUNCTION-96          332.000000          8.000000          139.000000          0.000000          Open
LINK-150          JUNCTION-96          JUNCTION-95          1432.000000          7.999947          139.000000          0.000000          Open
LINK-151          JUNCTION-91          JUNCTION-97          489.000000          8.000000          139.000000          0.000000          Open
LINK-152          JUNCTION-97          JUNCTION-96          122.000000          8.000000          139.000000          0.000000          Open
LINK-153          JUNCTION-97          JUNCTION-98          285.000000          8.000000          139.000000          0.000000          Open
LINK-154          JUNCTION-98          JUNCTION-99          597.000000          8.000000          139.000000          0.000000          Open
LINK-155          JUNCTION-99          JUNCTION-100          148.000000          8.000000          139.000000          0.000000          Open
LINK-156          JUNCTION-100          JUNCTION-101          812.000000          7.999900          139.000000          0.000000          Open
LINK-157          JUNCTION-101          JUNCTION-98          152.000000          8.000000          139.000000          0.000000          Open
LINK-158          JUNCTION-100          JUNCTION-101          620.000000          8.000000          139.000000          0.000000          Open
LINK-159          JUNCTION-98          JUNCTION-99          784.000000          7.999947          139.000000          0.000000          Open
LINK-160          JUNCTION-97          JUNCTION-71          1214.000000          8.000000          139.000000          0.000000          Open
LINK-161          JUNCTION-45          JUNCTION-46          718.000000          10.000000          138.000000          0.000000          Open
LINK-162          JUNCTION-46          JUNCTION-120          315.000000          10.000000          138.000000          0.000000          Open
LINK-163          JUNCTION-119          JUNCTION-104          76.000000          10.000000          138.000000          0.000000          Open
LINK-164          JUNCTION-103          JUNCTION-102          930.000000          12.000000          140.000000          0.000000          Open
LINK-165          JUNCTION-102          TANK-131          559.000000          16.000000          140.000000          0.000000          Open
LINK-166          JUNCTION-29          JUNCTION-105          169.000000          11.974181          140.000000          800.000000          Open
LINK-167          JUNCTION-106          JUNCTION-104          84.000000          8.000000          138.000000          0.000000          Open
LINK-168          JUNCTION-103          JUNCTION-121          291.000000          12.000000          140.000000          0.000000          Open
LINK-169          JUNCTION-103          JUNCTION-104          4700.000000          10.121698          138.000000          0.000000          Open
[PUMPS]

 PUMP-170        	JUNCTION-105    	JUNCTION-106    	HEAD CURVE-0	;
 PUMP-172        	JUNCTION-109    	JUNCTION-110    	HEAD CURVE-2	;

[VALVES]

 VALVE-173       	JUNCTION-111    	JUNCTION-112    	6.000000    	PRV 	70.000000   	0.000000    	;
 VALVE-174       	JUNCTION-113    	JUNCTION-114    	6.000000    	PRV 	80.000000   	0.000000    	;
 VALVE-175       	JUNCTION-115    	JUNCTION-116    	10.000000   	PRV 	55.000000   	0.000000    	;
 VALVE-176       	JUNCTION-117    	JUNCTION-118    	6.000000    	PRV 	29.762000   	0.000000    	;
 VALVE-177       	JUNCTION-119    	JUNCTION-120    	6.000000    	PRV 	45.000000   	0.000000    	;
 VALVE-178       	JUNCTION-121    	JUNCTION-122    	6.000000    	PRV 	37.000000   	0.000000    	;
 VALVE-179       	JUNCTION-123    	JUNCTION-124    	8.000000    	PRV 	40.000000   	0.000000    	;
 VALVE-180       	JUNCTION-125    	JUNCTION-126    	8.000000    	PRV 	16.450000   	0.000000    	;

[DEMANDS]
JUNCTION-0          0.763534          PATTERN-0
JUNCTION-1          0.000000          PATTERN-0
JUNCTION-2          0.830000          PATTERN-0
JUNCTION-3          4.400000          PATTERN-0
JUNCTION-4          3.836466          PATTERN-0
JUNCTION-5          3.529833          PATTERN-0
JUNCTION-6          1.850000          PATTERN-0
JUNCTION-7          0.000000          PATTERN-0
JUNCTION-8          1.540000          PATTERN-0
JUNCTION-9          0.000000          PATTERN-0
JUNCTION-10          0.341497          PATTERN-0
JUNCTION-11          1.049859          PATTERN-0
JUNCTION-12          0.025149          PATTERN-0
JUNCTION-13          0.000000          PATTERN-0
JUNCTION-14          0.000000          PATTERN-0
JUNCTION-15          1.320167          PATTERN-0
JUNCTION-16          0.000000          PATTERN-0
JUNCTION-17          25.715679          PATTERN-0
JUNCTION-18          6.182285          PATTERN-0
JUNCTION-19          4.603554          PATTERN-0