
[TITLE]

[JUNCTIONS]
JUNCTION-0          35.507973
JUNCTION-1          30.000000
JUNCTION-2          47.460949
JUNCTION-3          68.614601
JUNCTION-4          54.953991
JUNCTION-5          47.500000
JUNCTION-6          57.500000
JUNCTION-7          48.340069
JUNCTION-8          55.670734
JUNCTION-9          52.500000
JUNCTION-10          64.669937
JUNCTION-11          67.864891
JUNCTION-12          72.165924
JUNCTION-13          55.968269
JUNCTION-14          40.000000
JUNCTION-15          65.839157
JUNCTION-16          70.637718
JUNCTION-17          57.436489
JUNCTION-18          53.907684
JUNCTION-19          75.000000
JUNCTION-20          70.117142
JUNCTION-21          63.521160
JUNCTION-22          75.000000
JUNCTION-23          63.449806
JUNCTION-24          71.758522
JUNCTION-25          42.322582
JUNCTION-26          67.512390
JUNCTION-27          63.912132
JUNCTION-28          72.604797
JUNCTION-29          80.505737
JUNCTION-30          82.921646
JUNCTION-31          53.244144
JUNCTION-32          48.079811
JUNCTION-33          45.000000
JUNCTION-34          51.526394
JUNCTION-35          53.943233
JUNCTION-36          48.887321
JUNCTION-37          52.109127
JUNCTION-38          45.703236
JUNCTION-39          45.000000
JUNCTION-40          42.286777
JUNCTION-41          32.905602
JUNCTION-42          35.000000
JUNCTION-43          35.000000
JUNCTION-44          49.154137
JUNCTION-45          45.000000
JUNCTION-46          50.703712
JUNCTION-47          57.254177
JUNCTION-48          47.449593
JUNCTION-49          53.985073
JUNCTION-50          57.500000
JUNCTION-51          53.072842
JUNCTION-52          52.245098
JUNCTION-53          52.500000
JUNCTION-54          41.534199
JUNCTION-55          49.427109
JUNCTION-56          45.978512
JUNCTION-57          36.354630
JUNCTION-58          57.416382
JUNCTION-59          37.402740
JUNCTION-60          35.000000
JUNCTION-61          35.000000
JUNCTION-62          35.000000
JUNCTION-63          32.500000
JUNCTION-64          35.000000
JUNCTION-65          35.000000
JUNCTION-66          35.000000
JUNCTION-67          35.000000
JUNCTION-68          35.000000
JUNCTION-69          60.000000
JUNCTION-70          35.000000
JUNCTION-71          35.000000
JUNCTION-72          35.000000
JUNCTION-73          35.000000
JUNCTION-74          35.000000
JUNCTION-75          35.000000
JUNCTION-76          35.000000
JUNCTION-77          30.915831
JUNCTION-78          30.000000
JUNCTION-79          43.490154
JUNCTION-80          60.000000
JUNCTION-81          44.638187
JUNCTION-82          32.035828
JUNCTION-83          30.928074
JUNCTION-84          30.000000
JUNCTION-85          30.000000
JUNCTION-86          30.000000
JUNCTION-87          30.000000
JUNCTION-88          30.000000
JUNCTION-89          30.000000
JUNCTION-90          30.000000
JUNCTION-91          60.000000
JUNCTION-92          30.000000
JUNCTION-93          30.000000
JUNCTION-94          30.000000
JUNCTION-95          30.000000
JUNCTION-96          30.000000
JUNCTION-97          30.000000
JUNCTION-98          30.000000
JUNCTION-99          30.000000
JUNCTION-100          30.000000
JUNCTION-101          30.000000
JUNCTION-102          56.000000
JUNCTION-103          30.000000
JUNCTION-104          30.000000
JUNCTION-105          30.000000
JUNCTION-106          33.192482
JUNCTION-107          30.000000
JUNCTION-108          32.751755
JUNCTION-109          32.727188
JUNCTION-110          32.526447
JUNCTION-111          35.000000
JUNCTION-112          30.000000
JUNCTION-113          67.050934
JUNCTION-114          45.000000
JUNCTION-115          30.000000
JUNCTION-116          30.000000
JUNCTION-117          30.000000
JUNCTION-118          30.000000
JUNCTION-119          30.000000
JUNCTION-120          30.000000
JUNCTION-121          35.000000
JUNCTION-122          35.000000
JUNCTION-123          35.000000
JUNCTION-124          35.000000
JUNCTION-125          55.000000
JUNCTION-126          35.000000
JUNCTION-127          35.000000
JUNCTION-128          35.000000
JUNCTION-129          35.000000
JUNCTION-130          30.000000
JUNCTION-131          30.000000
JUNCTION-132          30.000000
JUNCTION-133          30.000000
JUNCTION-134          30.000000
JUNCTION-135          30.000000
JUNCTION-136          55.000000
JUNCTION-137          35.000000
JUNCTION-138          30.000000
JUNCTION-139          30.000000
JUNCTION-140          50.000000
JUNCTION-141          48.203316
JUNCTION-142          40.000000
JUNCTION-143          43.087769
JUNCTION-144          56.099060
JUNCTION-145          52.482346
JUNCTION-146          37.500000
JUNCTION-147          47.925766
JUNCTION-148          47.500000
JUNCTION-149          47.062248
JUNCTION-150          47.234695
JUNCTION-151          61.855312
JUNCTION-152          52.345230
JUNCTION-153          59.999676
JUNCTION-154          57.077038
JUNCTION-155          56.996574
JUNCTION-156          52.500000
JUNCTION-157          60.815739
JUNCTION-158          46.433353
JUNCTION-159          52.975700
JUNCTION-160          57.099358
JUNCTION-161          47.725033
JUNCTION-162          43.419853
JUNCTION-163          36.094753
JUNCTION-164          63.948975
JUNCTION-165          42.762863
JUNCTION-166          58.274029
JUNCTION-167          38.239971
JUNCTION-168          58.160461
JUNCTION-169          47.828445
JUNCTION-170          52.015396
JUNCTION-171          59.809948
JUNCTION-172          54.315960
JUNCTION-173          58.644276
JUNCTION-174          51.508045
JUNCTION-175          42.982906
JUNCTION-176          40.000000
JUNCTION-177          42.500000
JUNCTION-178          40.000000
JUNCTION-179          50.000000
JUNCTION-180          48.476852
JUNCTION-181          42.509556
JUNCTION-182          43.196091
JUNCTION-183          43.994511
JUNCTION-184          42.500000
JUNCTION-185          46.410870
JUNCTION-186          42.265614
JUNCTION-187          40.000000
JUNCTION-188          41.722404
JUNCTION-189          53.735455
JUNCTION-190          46.818291
JUNCTION-191          46.395287
JUNCTION-192          44.835121
JUNCTION-193          52.873253
JUNCTION-194          42.032166
JUNCTION-195          42.981030
JUNCTION-196          37.745872
JUNCTION-197          45.772167
JUNCTION-198          38.684124
JUNCTION-199          41.819874
JUNCTION-200          43.265503
JUNCTION-201          39.110249
JUNCTION-202          52.954319
JUNCTION-203          40.233391
JUNCTION-204          36.753574
JUNCTION-205          38.917065
JUNCTION-206          53.518635
JUNCTION-207          58.970547
JUNCTION-208          35.288273
JUNCTION-209          36.833183
JUNCTION-210          37.826298
JUNCTION-211          37.795448
JUNCTION-212          39.658981
JUNCTION-213          52.634895
JUNCTION-214          38.675728
JUNCTION-215          35.000000
JUNCTION-216          45.328835
JUNCTION-217          55.086079
JUNCTION-218          48.597042
JUNCTION-219          45.657230
JUNCTION-220          46.957039
JUNCTION-221          46.904518
JUNCTION-222          43.910965
JUNCTION-223          42.407726
JUNCTION-224          59.288681
JUNCTION-225          65.000000
JUNCTION-226          42.383907
JUNCTION-227          40.000000
JUNCTION-228          45.000000
JUNCTION-229          42.473763
JUNCTION-230          45.000000
JUNCTION-231          45.000000
JUNCTION-232          47.500000
JUNCTION-233          53.649014
JUNCTION-234          32.434532
JUNCTION-235          37.500000
JUNCTION-236          55.000000
JUNCTION-237          37.500000
JUNCTION-238          40.000000
JUNCTION-239          41.352917
JUNCTION-240          40.000000
JUNCTION-241          42.500000
JUNCTION-242          41.356121
JUNCTION-243          45.000000
JUNCTION-244          46.504147
JUNCTION-245          48.255043
JUNCTION-246          47.041168
JUNCTION-247          51.802280
JUNCTION-248          42.500000
JUNCTION-249          40.000000
JUNCTION-250          40.000000
JUNCTION-251          42.500000
JUNCTION-252          42.500000
JUNCTION-253          38.210640
JUNCTION-254          40.000000
JUNCTION-255          49.957966
JUNCTION-256          52.118122
JUNCTION-257          48.830856
JUNCTION-258          57.289471
JUNCTION-259          42.463261
JUNCTION-260          47.669010
JUNCTION-261          48.461040
JUNCTION-262          45.000000
JUNCTION-263          45.000000
JUNCTION-264          50.000000
JUNCTION-265          51.119385
JUNCTION-266          45.225864
JUNCTION-267          35.000000
JUNCTION-268          37.689579
JUNCTION-269          50.000000
JUNCTION-270          32.548168
JUNCTION-271          49.509117
JUNCTION-272          40.000000
JUNCTION-273          34.261913
JUNCTION-274          39.705196
JUNCTION-275          35.000000
JUNCTION-276          38.715073
JUNCTION-277          35.929264
JUNCTION-278          35.000000
JUNCTION-279          57.500000
JUNCTION-280          50.000000
JUNCTION-281          54.800438
JUNCTION-282          57.500000
JUNCTION-283          48.481785
JUNCTION-284          51.838226
JUNCTION-285          46.100063
JUNCTION-286          38.489132
JUNCTION-287          58.340694
JUNCTION-288          68.321648
JUNCTION-289          50.916138
JUNCTION-290          52.355450
JUNCTION-291          47.136646
JUNCTION-292          53.116669
JUNCTION-293          53.692585
JUNCTION-294          63.780621
JUNCTION-295          55.955910
JUNCTION-296          60.320156
JUNCTION-297          57.500000
JUNCTION-298          55.683521
JUNCTION-299          60.000000
JUNCTION-300          54.297260
JUNCTION-301          51.231026
JUNCTION-302          48.567909
JUNCTION-303          59.149849
JUNCTION-304          68.038513
JUNCTION-305          53.289135
JUNCTION-306          66.724274
JUNCTION-307          72.439659
JUNCTION-308          77.603035
JUNCTION-309          74.853111
JUNCTION-310          67.866493
JUNCTION-311          82.500000
JUNCTION-312          41.886585
JUNCTION-313          71.156731
JUNCTION-314          50.658905
JUNCTION-315          57.126652
JUNCTION-316          58.410484
JUNCTION-317          77.700844
JUNCTION-318          77.870872
JUNCTION-319          72.500000
JUNCTION-320          83.802315
JUNCTION-321          84.764313
JUNCTION-322          70.688515
JUNCTION-323          80.000000
JUNCTION-324          64.961082
JUNCTION-325          70.363449
JUNCTION-326          42.500000
JUNCTION-327          58.509453
JUNCTION-328          75.174469
JUNCTION-329          65.000000
JUNCTION-330          66.828949
JUNCTION-331          70.883148
JUNCTION-332          80.000000
JUNCTION-333          87.500000
JUNCTION-334          87.500000
JUNCTION-335          65.000000
JUNCTION-336          95.000000
JUNCTION-337          84.807709
JUNCTION-338          85.362740
JUNCTION-339          47.500000
JUNCTION-340          58.411465
JUNCTION-341          58.829365
JUNCTION-342          56.199848
JUNCTION-343          56.865028
JUNCTION-344          70.000000
JUNCTION-345          70.000000
JUNCTION-346          57.383572
JUNCTION-347          100.000000
JUNCTION-348          59.150955
JUNCTION-349          55.000000
JUNCTION-350          53.451611
JUNCTION-351          53.540382
JUNCTION-352          55.000000
JUNCTION-353          52.595676
JUNCTION-354          55.000000
JUNCTION-355          65.962540
JUNCTION-356          62.533409
JUNCTION-357          66.736183
JUNCTION-358          73.472778
JUNCTION-359          64.249344
JUNCTION-360          62.500000
JUNCTION-361          60.949524
JUNCTION-362          67.058678
JUNCTION-363          69.145309
JUNCTION-364          70.412285
JUNCTION-365          72.561020
JUNCTION-366          75.000000
JUNCTION-367          60.534233
JUNCTION-368          61.360855
JUNCTION-369          81.551712
JUNCTION-370          61.097122
JUNCTION-371          62.500000
JUNCTION-372          62.500000
JUNCTION-373          45.000000
JUNCTION-374          56.901398
JUNCTION-375          41.809021
JUNCTION-376          45.000000
JUNCTION-377          41.964333
JUNCTION-378          40.000000
JUNCTION-379          40.000000
JUNCTION-380          81.840904
JUNCTION-381          38.457588
JUNCTION-382          34.040497
JUNCTION-383          37.348721
JUNCTION-384          33.789585
JUNCTION-385          34.596729
JUNCTION-386          44.460251
JUNCTION-387          32.662941
JUNCTION-388          32.786766
JUNCTION-389          40.352486
JUNCTION-390          32.908127
JUNCTION-391          87.016754
JUNCTION-392          44.469639
JUNCTION-393          36.986202
JUNCTION-394          33.242146
JUNCTION-395          44.201675
JUNCTION-396          41.835587
JUNCTION-397          37.746124
JUNCTION-398          45.000000
JUNCTION-399          52.354801
JUNCTION-400          55.502384
JUNCTION-401          45.000000
JUNCTION-402          78.991783
JUNCTION-403          45.000000
JUNCTION-404          35.000000
JUNCTION-405          35.000000
JUNCTION-406          40.000000
JUNCTION-407          37.500000
JUNCTION-408          41.600548
JUNCTION-409          39.166733
JUNCTION-410          37.322887
JUNCTION-411          35.000000
JUNCTION-412          44.159023
JUNCTION-413          79.860764
JUNCTION-414          50.000000
JUNCTION-415          56.088661
JUNCTION-416          42.199596
JUNCTION-417          45.000000
JUNCTION-418          55.542740
JUNCTION-419          54.818993
JUNCTION-420          52.598549
JUNCTION-421          45.696732
JUNCTION-422          48.846611
JUNCTION-423          52.607727
JUNCTION-424          73.142441
JUNCTION-425          51.585819
JUNCTION-426          56.098652
JUNCTION-427          48.309910
JUNCTION-428          45.691605
JUNCTION-429          45.620537
JUNCTION-430          42.292446
JUNCTION-431          50.723495
JUNCTION-432          47.478226
JUNCTION-433          37.500000
JUNCTION-434          37.749622
JUNCTION-435          66.699707
JUNCTION-436          40.132538
JUNCTION-437          35.000000
JUNCTION-438          42.500000
JUNCTION-439          39.893078
JUNCTION-440          45.000000
JUNCTION-441          44.354263
JUNCTION-442          37.279568
JUNCTION-443          40.678230
JUNCTION-444          48.736027
JUNCTION-445          47.500000
JUNCTION-446          72.480217
JUNCTION-447          71.291100
JUNCTION-448          45.000000
JUNCTION-449          41.490349
JUNCTION-450          48.187683
JUNCTION-451          48.278355
JUNCTION-452          47.845535
JUNCTION-453          56.527931
JUNCTION-454          56.751984
JUNCTION-455          54.319283
JUNCTION-456          57.763813
JUNCTION-457          63.600128
JUNCTION-458          82.312965
JUNCTION-459          49.198776
JUNCTION-460          66.496284
JUNCTION-461          67.355736
JUNCTION-462          70.000000
JUNCTION-463          65.000000
JUNCTION-464          70.000000
JUNCTION-465          61.196045
JUNCTION-466          52.129822
JUNCTION-467          43.158535
JUNCTION-468          71.500458
JUNCTION-469          66.322189
JUNCTION-470          72.807823
JUNCTION-471          75.000000
JUNCTION-472          75.000000
JUNCTION-473          74.719826
JUNCTION-474          72.796234
JUNCTION-475          80.000000
JUNCTION-476          76.490631
JUNCTION-477          80.000000
JUNCTION-478          77.360947
JUNCTION-479          78.661934
JUNCTION-480          73.182068
JUNCTION-481          77.295113
JUNCTION-482          81.049660
JUNCTION-483          65.000000
JUNCTION-484          65.000000
JUNCTION-485          65.000000
JUNCTION-486          71.009117
JUNCTION-487          67.096352
JUNCTION-488          65.000000
JUNCTION-489          74.499641
JUNCTION-490          47.649956
JUNCTION-491          56.530010
JUNCTION-492          68.632751
JUNCTION-493          64.524361
JUNCTION-494          54.890636
JUNCTION-495          54.842838
JUNCTION-496          59.804218
JUNCTION-497          57.640240
JUNCTION-498          57.916786
JUNCTION-499          63.309517
JUNCTION-500          62.400845
JUNCTION-501          61.732655
JUNCTION-502          56.937725
JUNCTION-503          57.399593
JUNCTION-504          58.238876
JUNCTION-505          62.933739
JUNCTION-506          68.306175
JUNCTION-507          7.904758
JUNCTION-508          12.703598
JUNCTION-509          5.000000
JUNCTION-510          5.000000
JUNCTION-511          6.634078
JUNCTION-512          2.500000
JUNCTION-513          52.968529
JUNCTION-514          9.611674
JUNCTION-515          12.500000
JUNCTION-516          9.816205
JUNCTION-517          85.000000
JUNCTION-518          95.000000
JUNCTION-519          97.302681
JUNCTION-520          97.310883
JUNCTION-521          77.500000
JUNCTION-522          78.010880
JUNCTION-523          77.500000
JUNCTION-524          52.910450
JUNCTION-525          77.500000
JUNCTION-526          81.668892
JUNCTION-527          65.000000
JUNCTION-528          65.000000
JUNCTION-529          70.000000
JUNCTION-530          70.240845
JUNCTION-531          63.190647
JUNCTION-532          92.500000
JUNCTION-533          67.946419
JUNCTION-534          70.000000
JUNCTION-535          71.539070
JUNCTION-536          75.056419
JUNCTION-537          77.986961
JUNCTION-538          73.075478
JUNCTION-539          75.728584
JUNCTION-540          46.976147
JUNCTION-541          47.386944
JUNCTION-542          40.000000
JUNCTION-543          40.000000
JUNCTION-544          35.594334
JUNCTION-545          30.000000
JUNCTION-546          50.826756
JUNCTION-547          30.156193
JUNCTION-548          25.000000
JUNCTION-549          26.848465
JUNCTION-550          32.207634
JUNCTION-551          30.000000
JUNCTION-552          32.386196
JUNCTION-553          50.000000
JUNCTION-554          43.689541
JUNCTION-555          57.891701
JUNCTION-556          40.611958
JUNCTION-557          92.576942
JUNCTION-558          52.175331
JUNCTION-559          34.777687
JUNCTION-560          40.123741
JUNCTION-561          42.359600
JUNCTION-562          38.691475
JUNCTION-563          38.003078
JUNCTION-564          39.004864
JUNCTION-565          34.318428
JUNCTION-566          37.513878
JUNCTION-567          43.827312
JUNCTION-568          40.959415
JUNCTION-569          54.284424
JUNCTION-570          40.447727
JUNCTION-571          42.837021
JUNCTION-572          83.424416
JUNCTION-573          27.148703
JUNCTION-574          29.676620
JUNCTION-575          40.059280
JUNCTION-576          40.994713
JUNCTION-577          52.604568
JUNCTION-578          36.642330
JUNCTION-579          72.334251
JUNCTION-580          58.759499
JUNCTION-581          70.000000
JUNCTION-582          71.916481
JUNCTION-583          77.288719
JUNCTION-584          76.211983
JUNCTION-585          79.149406
JUNCTION-586          80.575401
JUNCTION-587          82.500000
JUNCTION-588          68.336868
JUNCTION-589          62.506271
JUNCTION-590          62.473591
JUNCTION-591          59.408203
JUNCTION-592          64.811348
JUNCTION-593          49.226215
JUNCTION-594          50.000000
JUNCTION-595          74.124626
JUNCTION-596          75.119637
JUNCTION-597          72.067116
JUNCTION-598          72.500000
JUNCTION-599          53.694519
JUNCTION-600          63.283772
JUNCTION-601          52.509521
JUNCTION-602          53.193916
JUNCTION-603          67.367905
JUNCTION-604          75.446220
JUNCTION-605          67.854393
JUNCTION-606          71.947639
JUNCTION-607          78.238991
JUNCTION-608          70.000000
JUNCTION-609          40.000000
JUNCTION-610          40.000000
JUNCTION-611          32.500000
JUNCTION-612          30.000000
JUNCTION-613          53.789410
JUNCTION-614          30.000000
JUNCTION-615          25.807087
JUNCTION-616          30.000000
JUNCTION-617          23.512827
JUNCTION-618          37.793140
JUNCTION-619          35.671036
JUNCTION-620          30.817774
JUNCTION-621          30.534369
JUNCTION-622          30.000000
JUNCTION-623          30.000000
JUNCTION-624          50.602627
JUNCTION-625          30.000000
JUNCTION-626          26.830294
JUNCTION-627          35.000000
JUNCTION-628          70.000000
JUNCTION-629          70.000000
JUNCTION-630          70.000000
JUNCTION-631          65.000000
JUNCTION-632          70.604546
JUNCTION-633          70.423943
JUNCTION-634          67.248611
JUNCTION-635          58.389141
JUNCTION-636          81.925781
JUNCTION-637          62.737141
JUNCTION-638          54.785564
JUNCTION-639          29.746168
JUNCTION-640          32.665482
JUNCTION-641          77.397400
JUNCTION-642          75.761726
JUNCTION-643          75.000000
JUNCTION-644          78.336769
JUNCTION-645          118.489822
JUNCTION-646          78.429070
JUNCTION-647          100.345474
JUNCTION-648          76.997444
JUNCTION-649          72.880829
JUNCTION-650          75.000000
JUNCTION-651          75.959969
JUNCTION-652          76.440010
JUNCTION-653          78.263153
JUNCTION-654          60.000000
JUNCTION-655          58.771076
JUNCTION-656          61.813370
JUNCTION-657          72.500000
JUNCTION-658          67.412865
JUNCTION-659          72.397171
JUNCTION-660          72.100494
JUNCTION-661          75.782257
JUNCTION-662          80.000000
JUNCTION-663          62.639423
JUNCTION-664          65.182289
JUNCTION-665          55.000000
JUNCTION-666          57.500000
JUNCTION-667          68.334435
JUNCTION-668          79.997215
JUNCTION-669          59.249702
JUNCTION-670          55.000000
JUNCTION-671          70.318344
JUNCTION-672          67.500000
JUNCTION-673          71.319550
JUNCTION-674          55.921719
JUNCTION-675          61.389534
JUNCTION-676          78.404709
JUNCTION-677          72.777397
JUNCTION-678          64.373070
JUNCTION-679          72.500000
JUNCTION-680          69.676674
JUNCTION-681          77.457932
JUNCTION-682          72.611465
JUNCTION-683          72.935577
JUNCTION-684          70.000000
JUNCTION-685          70.000000
JUNCTION-686          70.000000
JUNCTION-687          68.468292
JUNCTION-688          69.027672
JUNCTION-689          63.705772
JUNCTION-690          61.198334
JUNCTION-691          67.503532
JUNCTION-692          60.000000
JUNCTION-693          47.500000
JUNCTION-694          50.000000
JUNCTION-695          60.343288
JUNCTION-696          55.000000
JUNCTION-697          52.044632
JUNCTION-698          60.000000
JUNCTION-699          55.000000
JUNCTION-700          52.308311
JUNCTION-701          68.256714
JUNCTION-702          50.000000
JUNCTION-703          70.000000
JUNCTION-704          72.165916
JUNCTION-705          76.584084
JUNCTION-706          74.190361
JUNCTION-707          82.540199
JUNCTION-708          85.000000
JUNCTION-709          87.500000
JUNCTION-710          92.986847
JUNCTION-711          76.185066
JUNCTION-712          79.874710
JUNCTION-713          67.612801
JUNCTION-714          62.057487
JUNCTION-715          65.000000
JUNCTION-716          65.000000
JUNCTION-717          72.500000
JUNCTION-718          74.218658
JUNCTION-719          76.556015
JUNCTION-720          74.088844
JUNCTION-721          76.907028
JUNCTION-722          80.000000
JUNCTION-723          53.287086
JUNCTION-724          78.119858
JUNCTION-725          78.509636
JUNCTION-726          81.891624
JUNCTION-727          71.454803
JUNCTION-728          80.000000
JUNCTION-729          79.541771
JUNCTION-730          73.063820
JUNCTION-731          65.467850
JUNCTION-732          66.341309
JUNCTION-733          62.952023
JUNCTION-734          56.571732
JUNCTION-735          60.000000
JUNCTION-736          72.277359
JUNCTION-737          62.058113
JUNCTION-738          64.823196
JUNCTION-739          71.585045
JUNCTION-740          66.373604
JUNCTION-741          67.019463
JUNCTION-742          81.117958
JUNCTION-743          80.000000
JUNCTION-744          80.000000
JUNCTION-745          48.890705
JUNCTION-746          82.635094
JUNCTION-747          83.366516
JUNCTION-748          70.000000
JUNCTION-749          73.724037
JUNCTION-750          78.566780
JUNCTION-751          87.500000
JUNCTION-752          87.808586
JUNCTION-753          79.859581
JUNCTION-754          80.000000
JUNCTION-755          43.540043
JUNCTION-756          49.273998
JUNCTION-757          42.962849
JUNCTION-758          40.262943
JUNCTION-759          41.995663
JUNCTION-760          42.419415
JUNCTION-761          40.154991
JUNCTION-762          36.251251
JUNCTION-763          43.645573
JUNCTION-764          35.000000
JUNCTION-765          40.887604
JUNCTION-766          41.259293
JUNCTION-767          45.000000
JUNCTION-768          33.745159
JUNCTION-769          36.313236
JUNCTION-770          38.482029
JUNCTION-771          35.000000
JUNCTION-772          39.737762
JUNCTION-773          35.000000
JUNCTION-774          40.037045
JUNCTION-775          39.890327
JUNCTION-776          43.582714
JUNCTION-777          36.950214
JUNCTION-778          97.040581
JUNCTION-779          52.113495
JUNCTION-780          30.000000
JUNCTION-781          36.986473
JUNCTION-782          44.553440
JUNCTION-783          50.498943
JUNCTION-784          40.000000
JUNCTION-785          52.471436
JUNCTION-786          51.886196
JUNCTION-787          30.000000
JUNCTION-788          30.000000
JUNCTION-789          82.887184
JUNCTION-790          49.645836
JUNCTION-791          71.378075
JUNCTION-792          54.926117
JUNCTION-793          30.000000
JUNCTION-794          30.000000
JUNCTION-795          30.000000
JUNCTION-796          52.111706
JUNCTION-797          52.409706
JUNCTION-798          51.752857
JUNCTION-799          51.676983
JUNCTION-800          48.221283
JUNCTION-801          51.813347
JUNCTION-802          30.000000
JUNCTION-803          92.645828
JUNCTION-804          87.863564
JUNCTION-805          85.000000
JUNCTION-806          90.000000
JUNCTION-807          48.310085
JUNCTION-808          48.693058
JUNCTION-809          45.000000
JUNCTION-810          44.933708
JUNCTION-811          59.817669
JUNCTION-812          48.855640
JUNCTION-813          57.500000
JUNCTION-814          51.750504
JUNCTION-815          53.468590
JUNCTION-816          51.431419
JUNCTION-817          42.893978
JUNCTION-818          41.478176
JUNCTION-819          45.442917
JUNCTION-820          48.525097
JUNCTION-821          51.436817
JUNCTION-822          45.478333
JUNCTION-823          53.884239
JUNCTION-824          51.060196
JUNCTION-825          57.413422
JUNCTION-826          94.506996
JUNCTION-827          87.110443
JUNCTION-828          82.022781
JUNCTION-829          94.503502
JUNCTION-830          57.960606
JUNCTION-831          67.057503
JUNCTION-832          57.969643
JUNCTION-833          56.657352
JUNCTION-834          48.290771
JUNCTION-835          60.587818
JUNCTION-836          66.645111
JUNCTION-837          68.455902
JUNCTION-838          62.636547
JUNCTION-839          65.000000
JUNCTION-840          80.000000
JUNCTION-841          80.000000
JUNCTION-842          78.381607
JUNCTION-843          80.000000
JUNCTION-844          76.649567
JUNCTION-845          57.500000
JUNCTION-846          74.223930
JUNCTION-847          85.537163
JUNCTION-848          84.912552
JUNCTION-849          51.063709
JUNCTION-850          40.000000
JUNCTION-851          70.000000
JUNCTION-852          77.255646
JUNCTION-853          70.000000
JUNCTION-854          74.509056
JUNCTION-855          87.499146
JUNCTION-856          51.639889
JUNCTION-857          83.841499
JUNCTION-858          82.647766
JUNCTION-859          82.481506
JUNCTION-860          89.681328
JUNCTION-861          59.595097
JUNCTION-862          45.000000
JUNCTION-863          52.763866
JUNCTION-864          47.080143
JUNCTION-865          44.670753
JUNCTION-866          37.500000
JUNCTION-867          49.117928
JUNCTION-868          44.767845
JUNCTION-869          85.000000
JUNCTION-870          85.000000
JUNCTION-871          42.809746
JUNCTION-872          42.171379
JUNCTION-873          83.247292
JUNCTION-874          84.992317
JUNCTION-875          73.036186
JUNCTION-876          68.489799
JUNCTION-877          45.000000
JUNCTION-878          48.029697
JUNCTION-879          77.958458
JUNCTION-880          47.481621
JUNCTION-881          40.000000
JUNCTION-882          54.733154
JUNCTION-883          49.120888
JUNCTION-884          50.000000
JUNCTION-885          46.545479
JUNCTION-886          45.000000
JUNCTION-887          45.000000
JUNCTION-888          45.000000
JUNCTION-889          87.613251
JUNCTION-890          48.203701
JUNCTION-891          45.405151
JUNCTION-892          42.948891
JUNCTION-893          42.932297
JUNCTION-894          50.000000
JUNCTION-895          48.848270
JUNCTION-896          46.553955
JUNCTION-897          45.000000
JUNCTION-898          46.183178
JUNCTION-899          50.348423
JUNCTION-900          47.984653
JUNCTION-901          79.023232
JUNCTION-902          50.467979
JUNCTION-903          50.667114
JUNCTION-904          40.000000
JUNCTION-905          61.020237
JUNCTION-906          55.000000
JUNCTION-907          52.500000
JUNCTION-908          50.000000
JUNCTION-909          52.500000
JUNCTION-910          47.931015
JUNCTION-911          48.965950
JUNCTION-912          73.501945
JUNCTION-913          45.000000
JUNCTION-914          48.840820
JUNCTION-915          50.000000
JUNCTION-916          48.209167
JUNCTION-917          42.500000
JUNCTION-918          45.032497
JUNCTION-919          50.000000
JUNCTION-920          40.000000
JUNCTION-921          47.582050
JUNCTION-922          45.000000
JUNCTION-923          77.479256
JUNCTION-924          45.000000
JUNCTION-925          40.000000
JUNCTION-926          47.955372
JUNCTION-927          49.330772
JUNCTION-928          61.035736
JUNCTION-929          97.500000
JUNCTION-930          87.822464
JUNCTION-931          80.000000
JUNCTION-932          100.000000
JUNCTION-933          98.433121
JUNCTION-934          75.148712
JUNCTION-935          78.172890
JUNCTION-936          75.000000
JUNCTION-937          93.971329
JUNCTION-938          89.015518
JUNCTION-939          50.000000