[TITLE]


[JUNCTIONS]
;ID              	Elev        	Demand      	Pattern         
 J-1             	963.6497    	1.98        	1               	;
 J-10            	917.3179    	0.91        	1               	;
 J-100           	876.041     	0.14        	1               	;
 J-1000          	858.4226    	0.56        	1               	;
 J-1001          	869.7252    	0.22        	1               	;
 J-1002          	923.0118    	0.62        	1               	;
 J-1003          	948.2344    	1.11        	1               	;
 J-1004          	998.936     	0.1         	1               	;
 J-1005          	989.7354    	0.12        	1               	;
 J-1006          	963.723     	0.08        	1               	;
 J-1007          	957.0555    	0.58        	1               	;
 J-1008          	1049.666    	0.08        	1               	;
 J-1009          	981.7465    	0.06        	1               	;
 J-101           	1091.658    	0           	                	;
 J-1010          	991.746     	0.1         	1               	;
 J-1011          	972.9749    	0.06        	1               	;
 J-1012          	982.0234    	0.04        	1               	;
 J-1013          	1033.887    	0.24        	1               	;
 J-1014          	1022.931    	0.35        	1               	;
 J-1015          	1015.208    	0.68        	1               	;
 J-1016          	944.0205    	0.16        	1               	;
 J-1017          	955.8196    	0.81        	1               	;
 J-1018          	973.8025    	0.78        	1               	;
 J-1019          	888.7603    	0.25        	1               	;
 J-102           	957.228     	0.34        	1               	;
 J-1020          	927.0332    	0.27        	1               	;
 J-1021          	945.1269    	0.34        	1               	;
 J-1022          	924.6705    	0.12        	1               	;
 J-1023          	955.4907    	0.31        	1               	;
 J-1024          	971.75      	0.1         	1               	;
 J-1025          	941.3131    	0.12        	1               	;
 J-1026          	993.3311    	0.28        	1               	;
 J-1027          	932.1942    	0.16        	1               	;
 J-1028          	1090.989    	0.34        	1               	;
 J-1029          	1091.28     	0.34        	1               	;
 J-103           	942.1516    	0.12        	1               	;
 J-1030          	938.6439    	0.75        	1               	;
 J-1031          	919.7985    	0.12        	1               	;
 J-1032          	983.4585    	0.28        	1               	;
 J-1033          	971.8309    	0.14        	1               	;
 J-1034          	983.4244    	1.32        	1               	;
 J-1035          	948.6993    	0.57        	1               	;
 J-1036          	1030.306    	0.46        	1               	;
 J-1037          	1025.853    	0.1         	1               	;
 J-1038          	1044.981    	0.15        	1               	;
 J-1039          	967.8903    	0.09        	1               	;
 J-104           	1087.377    	0.44        	1               	;
 J-1040          	962.3921    	0.51        	1               	;
 J-1041          	970.5775    	0.29        	1               	;
 J-1042          	1032.971    	0.31        	1               	;
 J-1043          	914.1889    	0.05        	1               	;
 J-1044          	867.9496    	0.79        	1               	;
 J-1045          	905.2458    	0.19        	1               	;
 J-1046          	939.4477    	0.14        	1               	;
 J-1047          	992.3597    	2.29        	1               	;
 J-1048          	1068.645    	0.28        	1               	;
 J-1049          	1065.662    	0.32        	1               	;
 J-105           	1061.21     	0.38        	1               	;
 J-1050          	998.4286    	0.14        	1               	;
 J-1051          	978.252     	0.26        	1               	;
 J-1055          	1067.438    	0.16        	1               	;
 J-1056          	987.3554    	0.08        	1               	;
 J-1057          	969.501     	0.09        	1               	;
 J-1058          	1122.325    	0.25        	1               	;
 J-1059          	938.665     	1.15        	1               	;
 J-106           	993.3903    	0.19        	1               	;
 J-1061          	1036.412    	0.03        	1               	;
 J-1062          	1037.672    	0.04        	1               	;
 J-1063          	1100.973    	0.24        	1               	;
 J-1064          	1096.955    	0.89        	1               	;
 J-1065          	935.5256    	0.7         	1               	;
 J-1066          	969.9454    	0.14        	1               	;
 J-1067          	971.8132    	1.52        	1               	;
 J-1068          	1061.909    	0.1         	1               	;
 J-1069          	1098.405    	0.25        	1               	;
 J-107           	979.323     	0.09        	1               	;
 J-1070          	980         	0.05        	1               	;
 J-1071          	985.4542    	0.11        	1               	;
 J-1072          	991.1832    	0.06        	1               	;
 J-1073          	968.7896    	0.37        	1               	;
 J-1074          	981.7597    	0.47        	1               	;
 J-1075          	921.9217    	0.4         	1               	;
 J-1076          	902.8882    	0.19        	1               	;
 J-1077          	1012.758    	1.02        	1               	;
 J-1078          	939.4056    	1.69        	1               	;
 J-1079          	1065.076    	0.12        	1               	;
 J-108           	836.46      	0           	                	;
 J-1080          	965.3007    	0.77        	1               	;
 J-1081          	990.4676    	0.41        	1               	;
 J-1082          	1072.637    	0.5         	1               	;
 J-1083          	1042.01     	0.5         	1               	;
 J-1084          	843.9637    	7.91        	1               	;
 J-1085          	993.6284    	1.06        	1               	;
 J-1086          	1042.484    	0.02        	1               	;
 J-1087          	1042.76     	0.13        	1               	;
 J-1089          	1145.747    	0.15        	1               	;
 J-109           	927.3951    	0           	                	;
 J-1091          	970.1384    	0.1         	1               	;
 J-1092          	931.174     	0.14        	1               	;
 J-1093          	985.8035    	0.51        	1               	;
 J-1094          	960.1166    	0.73        	1               	;
 J-1095          	946.4942    	0.38        	1               	;
 J-1096          	960.6632    	0.28        	1               	;
 J-1097          	928.9121    	0.08        	1               	;
 J-1098          	969.2724    	0.61        	1               	;
 J-1099          	971.5308    	0.39        	1               	;
 J-11            	931.7836    	0.08        	1               	;
 J-110           	943.9547    	0.12        	1               	;
 J-1100          	1045.82     	0.06        	1               	;
 J-1101          	1003.894    	0.71        	1               	;
 J-1102          	896.7836    	0.66        	1               	;
 J-1103          	1186.165    	0.24        	1               	;
 J-1104          	1089.908    	0.47        	1               	;
 J-1105          	966.2282    	1.19        	1               	;
 J-1106          	941.1876    	0.32        	1               	;
 J-1107          	929.3136    	0.15        	1               	;
 J-1108          	997.9756    	0.62        	1               	;
 J-1109          	1070.115    	0.49        	1               	;
 J-111           	914.2643    	0.12        	1               	;
 J-1110          	1059.525    	0.64        	1               	;
 J-1111          	1009.272    	0.09        	1               	;
 J-1112          	1117.325    	0.11        	1               	;
 J-1113          	1110.709    	0.19        	1               	;
 J-1114          	954.4104    	0.09        	1               	;
 J-1115          	951.6343    	0.14        	1               	;
 J-1116          	1056.225    	0.06        	1               	;
 J-1117          	963.2967    	0.36        	1               	;
 J-1118          	970.1487    	0.56        	1               	;
 J-1119          	970.0969    	0.23        	1               	;
 J-112           	931.0729    	0.06        	1               	;
 J-1120          	944.5837    	0.41        	1               	;
 J-1121          	901.3218    	0.29        	1               	;
 J-1122          	1105.293    	0.2         	1               	;
 J-1123          	984.9398    	0.48        	1               	;
 J-1124          	1081.522    	0.29        	1               	;
 J-1125          	1077.255    	0.09        	1               	;
 J-1126          	1044.977    	0.1         	1               	;
 J-1127          	1037.81     	0.04        	1               	;
 J-1128          	1030.223    	0.06        	1               	;
 J-1129          	895.2289    	0.16        	1               	;
 J-113           	920.1746    	0.1         	1               	;
 J-1130          	963.7087    	0.4         	1               	;
 J-1131          	1024.098    	1.14        	1               	;
 J-1132          	887.0701    	0.36        	1               	;
 J-1133          	900.9729    	0.65        	1               	;
 J-1134          	1003.794    	0.12        	1               	;
 J-1135          	1001.972    	0.69        	1               	;
 J-1136          	987.6692    	0.21        	1               	;
 J-1137          	997.871     	0.17        	1               	;
 J-1138          	987.7009    	0.87        	1               	;
 J-1139          	987.7009    	0.79        	1               	;
 J-114           	987.0786    	0.66        	1               	;
 J-1140          	888.0034    	0.91        	1               	;
 J-1141          	1027.92     	0.13        	1               	;
 J-1142          	1020.421    	0.43        	1               	;
 J-1143          	969.5606    	0.04        	1               	;
 J-1144          	967.9979    	0.06        	1               	;
 J-1145          	961.6271    	0.28        	1               	;
 J-1146          	960.1693    	0.19        	1               	;
 J-1147          	1055.558    	0.22        	1               	;
 J-1148          	1055.025    	0.37        	1               	;
 J-1149          	953.6863    	0.24        	1               	;
 J-115           	996.3819    	0.75        	1               	;
 J-1150          	958.7892    	0.14        	1               	;
 J-1151          	1003.901    	0.06        	1               	;
 J-1152          	970.8086    	0.1         	1               	;
 J-1153          	943.1628    	0.62        	1               	;
 J-1154          	1011.606    	0.68        	1               	;
 J-1155          	1037.66     	0.05        	1               	;
 J-1156          	1013.377    	3.94        	1               	;
 J-1157          	1050.485    	2.1         	1               	;
 J-1158          	1002.491    	0.67        	1               	;
 J-1159          	867.5644    	0.47        	1               	;
 J-116           	930         	0.56        	1               	;
 J-1160          	983.8592    	0.05        	1               	;
 J-1161          	1026.667    	0.08        	1               	;
 J-1162          	1011.383    	0.09        	1               	;
 J-1163          	1084.265    	0.32        	1               	;
 J-1164          	965.0704    	0.15        	1               	;
 J-1165          	1014.208    	0.12        	1               	;
 J-1166          	1051.648    	0.23        	1               	;
 J-1167          	827.0907    	0.65        	1               	;
 J-1168          	826.4669    	0.05        	1               	;
 J-1169          	1052.057    	0.51        	1               	;
 J-117           	924.6903    	1.43        	1               	;
 J-1170          	1054.596    	0.11        	1               	;
 J-1171          	1063.858    	0.12        	1               	;
 J-1172          	1060.849    	0.11        	1               	;
 J-1173          	1021.196    	0.07        	1               	;
 J-1174          	999.5725    	0.08        	1               	;
 J-1175          	1005.09     	0.81        	1               	;
 J-1176          	967.9417    	1.46        	1               	;
 J-1179          	979.8205    	0.58        	1               	;
 J-118           	948.393     	0.63        	1               	;
 J-1180          	973.8218    	0.06        	1               	;
 J-1181          	990.2594    	0.12        	1               	;
 J-1182          	1080.168    	0.11        	1               	;
 J-1183          	1090.467    	0.08        	1               	;
 J-1184          	970.0705    	0.02        	1               	;
 J-1185          	983.8389    	0.51        	1               	;
 J-1186          	970.5966    	0.33        	1               	;
 J-1187          	899.823     	1.04        	1               	;
 J-1188          	988.9395    	0.36        	1               	;
 J-1189          	1060.246    	0.19        	1               	;
 J-119           	963.9187    	0.31        	1               	;
 J-1190          	1019.209    	0.16        	1               	;
 J-1191          	1029.08     	0.77        	1               	;
 J-1192          	866.6295    	0.09        	1               	;
 J-1193          	1088.071    	0.07        	1               	;
 J-1194          	990.9432    	0.09        	1               	;
 J-1195          	1090.837    	0.18        	1               	;
 J-1196          	919.4534    	0.05        	1               	;
 J-1197          	958.6658    	0.48        	1               	;
 J-1198          	969.4573    	0.38        	1               	;
 J-1199          	941.006     	0.85        	1               	;
 J-12            	962.1597    	0.37        	1               	;
 J-120           	894.0986    	0.33        	1               	;
 J-1200          	987.4089    	0.95        	1               	;
 J-1201          	932.2282    	1.14        	1               	;
 J-1203          	1041.637    	0.16        	1               	;
 J-1204          	1050.64     	0.12        	1               	;
 J-1205          	948.7371    	0.39        	1               	;
 J-1206          	976.7059    	0.66        	1               	;
 J-1207          	1007.309    	0.16        	1               	;
 J-1208          	1044.109    	0.04        	1               	;
 J-1209          	1034.395    	0.04        	1               	;
 J-121           	927.7899    	0.36        	1               	;
 J-1210          	982.0535    	0.19        	1               	;
 J-1211          	955.9636    	1.04        	1               	;
 J-1212          	950.8907    	0.88        	1               	;
 J-1213          	1042.518    	2.95        	1               	;
 J-1214          	1002.9      	2.24        	1               	;
 J-1215          	1059.027    	0.7         	1               	;
 J-1216          	1159.835    	0.44        	1               	;
 J-1217          	1024.485    	0.52        	1               	;
 J-1218          	1045.013    	1.36        	1               	;
 J-1219          	1011.683    	0.57        	1               	;
 J-122           	1038.021    	0.61        	1               	;
 J-1220          	1019.923    	0.09        	1               	;
 J-1221          	1067.435    	0.22        	1               	;
 J-1222          	952.0229    	0.29        	1               	;
 J-1223          	926.9749    	0.25        	1               	;
 J-1224          	938.8492    	0.28        	1               	;
 J-1225          	1082.005    	0.17        	1               	;
 J-1226          	1073.173    	1.1         	1               	;
 J-1227          	968.1501    	0.14        	1               	;
 J-1228          	1051.056    	0.12        	1               	;
 J-1229          	1071.439    	1.39        	1               	;
 J-123           	1040.522    	0.31        	1               	;
 J-1230          	1080.149    	0.46        	1               	;
 J-1231          	930.6462    	0.41        	1               	;
 J-1232          	979.2643    	0.19        	1               	;
 J-1233          	969.9326    	0.2         	1               	;
 J-1234          	1025.461    	0.28        	1               	;
 J-1235          	935.0502    	0.06        	1               	;
 J-1236          	933.9164    	0.1         	1               	;
 J-1237          	1134.63     	0.17        	1               	;
 J-1238          	958.4938    	0.09        	1               	;
 J-1239          	1158.67     	0.22        	1               	;
 J-124           	1168.374    	0.12        	1               	;
 J-1240          	1150.839    	0.41        	1               	;
 J-1243          	1082.163    	0.11        	1               	;
 J-1244          	1062.951    	0.07        	1               	;
 J-1245          	1022.134    	0.16        	1               	;
 J-1246          	896.6       	0.29        	1               	;
 J-1247          	915.4       	0.28        	1               	;
 J-1248          	1063.853    	0.1         	1               	;
 J-1249          	1048.695    	0.09        	1               	;
 J-125           	1155.381    	0.12        	1               	;
 J-1250          	1082.231    	0.05        	1               	;
 J-1251          	1081.365    	0.06        	1               	;
 J-1252          	998.9485    	0.08        	1               	;
 J-1253          	990.2135    	0.06        	1               	;
 J-1254          	1095.587    	0.13        	1               	;
 J-1255          	1128.542    	0.12        	1               	;
 J-1256          	1099.95     	0.12        	1               	;
 J-1257          	1058.276    	0.33        	1               	;
 J-1258          	1064.879    	0.26        	1               	;
 J-1259          	1053.821    	1.21        	1               	;
 J-126           	879.8982    	0.15        	1               	;
 J-1260          	978.1345    	0.06        	1               	;
 J-1261          	968.8968    	0.06        	1               	;
 J-1262          	959.4639    	0.04        	1               	;
 J-1263          	1000.049    	0.98        	1               	;
 J-1265          	1108.255    	0.93        	1               	;
 J-1267          	975.6619    	0.34        	1               	;
 J-1268          	924.9657    	1.08        	1               	;
 J-1269          	910.3231    	0.04        	1               	;
 J-127           	877.9485    	0.12        	1               	;
 J-1270          	945.2049    	0.14        	1               	;
 J-1271          	949.7224    	0.29        	1               	;
 J-1272          	861.6312    	0.48        	1               	;
 J-1273          	970.7944    	1.81        	1               	;
 J-1274          	927.0717    	3.77        	1               	;
 J-1275          	987.2477    	0.19        	1               	;
 J-1276          	1004.174    	1.39        	1               	;
 J-1277          	1062.21     	0.28        	1               	;
 J-1278          	948.8454    	0.06        	1               	;
 J-1279          	966.6135    	0.08        	1               	;
 J-128           	0           	0           	                	;
 J-1280          	912.2983    	0.55        	1               	;
 J-1281          	882.4688    	0.14        	1               	;
 J-1282          	992.8158    	0.15        	1               	;
 J-1283          	927.8306    	1.15        	1               	;
 J-1284          	912.4418    	1.06        	1               	;
 J-1285          	1115.301    	0.56        	1               	;
 J-1286          	1030.183    	1.11        	1               	;
 J-1287          	1016.425    	0.31        	1               	;
 J-1288          	1102        	0.17        	1               	;
 J-1289          	912.5352    	0.05        	1               	;
 J-129           	0           	0           	                	;
 J-1290          	903.7742    	0.04        	1               	;
 J-1291          	1065.108    	0.06        	1               	;
 J-1292          	989.4871    	0.31        	1               	;
 J-1293          	942.2313    	0.38        	1               	;
 J-1294          	931.9473    	0.77        	1               	;
 J-1295          	957.1219    	1.1         	1               	;
 J-1296          	1102.641    	0.12        	1               	;
 J-1297          	1078.724    	0.35        	1               	;
 J-1298          	1044.794    	0.92        	1               	;
 J-1299          	887.2       	1.62        	1               	;
 J-13            	924.6942    	0.12        	1               	;
 J-130           	1064.465    	0.1         	1               	;
 J-1301          	951.6394    	0.34        	1               	;
 J-1302          	907.2936    	0.23        	1               	;
 J-1303          	895.4949    	0.16        	1               	;
 J-1304          	994.2994    	0.49        	1               	;
 J-1305          	1020.282    	0.1         	1               	;
 J-1306          	869.2038    	0.67        	1               	;
 J-1307          	864.2533    	0.28        	1               	;
 J-1308          	972.7687    	0.05        	1               	;
 J-131           	1062.26     	0.28        	1               	;
 J-1310          	1150.081    	0.78        	1               	;
 J-1311          	942.0917    	0.14        	1               	;
 J-1312          	871.3759    	0.07        	1               	;
 J-1313          	946.4904    	0.55        	1               	;
 J-1314          	1031.203    	0.03        	1               	;
 J-1315          	1034.347    	0.17        	1               	;
 J-1316          	977.9621    	0.09        	1               	;
 J-1318          	777.4001    	0.12        	1               	;
 J-1319          	909.0606    	0.28        	1               	;
 J-132           	988.5416    	0.41        	1               	;
 J-1320          	931.1335    	0.31        	1               	;
 J-1322          	978.4337    	0.61        	1               	;
 J-1323          	973.7356    	1.29        	1               	;
 J-1324          	1133.955    	3.82        	1               	;
 J-1325          	964.3776    	0.36        	1               	;
 J-1326          	967.5203    	0.62        	1               	;
 J-1327          	865.6001    	0.41        	1               	;
 J-1328          	952.4617    	0.65        	1               	;
 J-1329          	951.0071    	0.13        	1               	;
 J-133           	958.0349    	0.2         	1               	;
 J-1330          	932.908     	0.13        	1               	;
 J-1331          	983.6605    	0.06        	1               	;
 J-1332          	1143.183    	0.06        	1               	;
 J-1333          	1129.672    	0.17        	1               	;
 J-1334          	1094.605    	0.48        	1               	;
 J-1335          	946.8215    	0.25        	1               	;
 J-1336          	954.1169    	0.12        	1               	;
 J-1337          	932.8627    	2.31        	1               	;
 J-1338          	1009.986    	0.56        	1               	;
 J-1339          	878.1975    	0.36        	1               	;
 J-134           	1075.949    	0.28        	1               	;
 J-1340          	1190.224    	0.14        	1               	;
 J-1341          	1003.231    	0.26        	1               	;
 J-1342          	990.4713    	0.17        	1               	;
 J-1343          	983.0972    	0.2         	1               	;
 J-1344          	1041.772    	0.28        	1               	;
 J-1345          	967.2001    	0.09        	1               	;
 J-1347          	1012.867    	0.39        	1               	;
 J-1348          	988.004     	0.17        	1               	;
 J-1349          	981.6489    	0.39        	1               	;
 J-135           	901.0366    	0.22        	1               	;
 J-1350          	911.8882    	0.99        	1               	;
 J-1351          	954.1768    	0.28        	1               	;
 J-1352          	980.2148    	0.52        	1               	;
 J-1353          	963.6456    	0.16        	1               	;
 J-1354          	982.4254    	0.03        	1               	;
 J-1355          	1101.132    	0.14        	1               	;
 J-1356          	785.9434    	0.06        	1               	;
 J-1357          	1132.32     	0.71        	1               	;
 J-1358          	1148.597    	0.54        	1               	;
 J-1359          	1119.015    	0.14        	1               	;
 J-136           	908.1868    	0.39        	1               	;
 J-1360          	1099.825    	0.06        	1               	;
 J-1361          	1003.548    	0.52        	1               	;
 J-1362          	1004.715    	0.22        	1               	;
 J-1363          	1045.621    	0.25        	1               	;
 J-1364          	1010.878    	0.9         	1               	;
 J-1365          	970.1898    	0.44        	1               	;
 J-1366          	990.4708    	0.21        	1               	;
 J-1367          	997.0615    	0.86        	1               	;
 J-1368          	980.0815    	0.44        	1               	;
 J-1369          	1000.225    	0.69        	1               	;
 J-137           	1002.141    	0.06        	1               	;
 J-1370          	963.9991    	2.34        	1               	;
 J-1371          	930.0687    	0.17        	1               	;
 J-1372          	944.3854    	0.24        	1               	;
 J-1373          	934.4206    	0.28        	1               	;
 J-1374          	961.5068    	0.2         	1               	;
 J-1375          	1031.59     	0.05        	1               	;
 J-1376          	905.9255    	0.28        	1               	;
 J-1377          	992.967     	1.38        	1               	;
 J-1378          	982.162     	0.54        	1               	;
 J-1379          	980.0295    	0.62        	1               	;
 J-138           	994.2077    	0.06        	1               	;
 J-1380          	988.4827    	0.06        	1               	;
 J-1381          	910.8714    	0.16        	1               	;
 J-1382          	1010.849    	0.52        	1               	;
 J-1383          	1010.849    	0.37        	1               	;
 J-1384          	1001.69     	0.42        	1               	;
 J-1385          	1063.33     	0.31        	1               	;
 J-1386          	822.2233    	0.04        	1               	;
 J-1387          	860.2816    	0.07        	1               	;
 J-1388          	1009.792    	0.35        	1               	;
 J-1389          	915.1718    	0.28        	1               	;
 J-139           	1070.896    	0.11        	1               	;
 J-1390          	799.9206    	0.87        	1               	;
 J-1391          	978.634     	0.37        	1               	;
 J-1392          	977.5446    	0.78        	1               	;
 J-1393          	984.7567    	0.1         	1               	;
 J-1395          	1143.116    	0.14        	1               	;
 J-1396          	1181.448    	0.18        	1               	;
 J-1397          	1029.322    	2.07        	1               	;
 J-1398          	1070.676    	0.16        	1               	;
 J-1399          	895.7       	0.26        	1               	;
 J-14            	801.3531    	1.37        	1               	;
 J-140           	1069.023    	0.06        	1               	;
 J-1400          	1012.194    	0.22        	1               	;
 J-1401          	1097.621    	2.07        	1               	;
 J-1402          	1046.22     	0.06        	1               	;
 J-1403          	1050.76     	0.12        	1               	;
 J-1404          	1090.365    	0.04        	1               	;
 J-1405          	939.907     	0.85        	1               	;
 J-1406          	946.289     	0.31        	1               	;
 J-1407          	759.4609    	0.69        	1               	;
 J-1408          	757.2318    	0.24        	1               	;
 J-1409          	1062.481    	0.06        	1               	;
 J-141           	996.5566    	0.14        	1               	;
 J-1410          	1077.724    	0.08        	1               	;
 J-1411          	964.2391    	0.48        	1               	;
 J-1412          	988.2202    	0.26        	1               	;
 J-1413          	937.215     	0.04        	1               	;
 J-1414          	1069.055    	0.31        	1               	;
 J-1415          	1080.897    	0.14        	1               	;
 J-1416          	921.4409    	0.22        	1               	;
 J-1417          	924.0403    	1.03        	1               	;
 J-1418          	924.7131    	1.45        	1               	;
 J-1419          	950.5239    	0.41        	1               	;
 J-142           	1006.796    	0.29        	1               	;
 J-1420          	961.4635    	0.83        	1               	;
 J-1421          	1132.515    	0.23        	1               	;
 J-1422          	987.1791    	0.05        	1               	;
 J-1423          	1089.01     	0.44        	1               	;
 J-1424          	1088.845    	0.19        	1               	;
 J-1426          	981.5646    	0.27        	1               	;
 J-1427          	967.3427    	0.03        	1               	;
 J-1428          	875.9072    	0.25        	1               	;
 J-1429          	955.8082    	0.14        	1               	;
 J-143           	1121.708    	0.56        	1               	;
 J-1430          	964.9962    	0.12        	1               	;
 J-1431          	884.5452    	0.55        	1               	;
 J-1432          	898.418     	0.51        	1               	;
 J-1433          	964.8585    	0.3         	1               	;
 J-1434          	1191.658    	0.12        	1               	;
 J-1435          	1192.839    	0.11        	1               	;
 J-1436          	893         	0.34        	1               	;
 J-1437          	946.93      	1.2         	1               	;
 J-1438          	1036.594    	0.79        	1               	;
 J-1439          	1013.884    	1.26        	1               	;
 J-144           	1121.885    	0.36        	1               	;
 J-1440          	1020.349    	2.23        	1               	;
 J-1441          	853.0709    	0.25        	1               	;
 J-1442          	950.9997    	0.04        	1               	;