;BELL_CL1.INP
;BELLINGHAM,WA DAKIN-YEW
;WATER SYSTEM MODEL
;MODIFIED 8-10-93 JWC
;        10-29-93 JJV
;         3-15-94 JJV
;         4-18-94 JJV
;         5-02-94 JJV
;         1-25-95 LAR (changed initial Cl2 to 0.35 at Yew Res)
;                     (changed initial Cl2 to 0.0 at B33)
;                     (reduced mean demand at 160 by 50%)
[TITLE]
CITY OF BELLINGHAM - Dakin-Yew Water Pressure Zone
Average peak daily demands on all node locations. 5-25-93 / Smyth & Reilly
Van Wyck Assoc. and Dakin Reservoir pipeline added to network model.

[JUNCTIONS]
;ID   Elevation   Demand   Pattern
;---  ----------  -------  --------
  1    270.00      -1.0       5
  1001 270.0
  2    490.00      22.36      1
  3    286.00      98.2       1 ; 40 % of 245.50
  4    290.00      22.36      1
  5    345.00      26.82      1
  6    354.00      22.36      1
  7    340.00      22.36      1
  8    367.00       8.95      1
  9    320.00      22.36      1
 10    340.00      22.36      1
 11    338.00      22.36      1
 12    405.00       8.95      1
 13    397.00      22.36      1
 14    358.00      22.36      1
 15    280.00      22.36      1
 16    343.00      22.36      1
 17    346.00      22.36      1
 18    343.00      22.36      1
 19    356.00      22.36      1
 20    357.00      22.36      1
 21    391.00      22.36      1
 22    423.00      22.36      1
 23    424.00     281.61      1
 24    345.00      42.14      1
 25    349.00       9.71      1
 26    388.00       9.71      1
 27    332.00      37.03      1
 28    337.00      19.71      1
 29    340.00       9.71      1
 30    372.00       9.71      1
 31    347.00       9.71      1
 32    347.00      13.64      1
 33    349.00       9.71      1
 34    332.00       9.71      1
 35    325.00      15.09      1
 36    322.00       9.71      1
 37    324.00       6.46      1
 38    355.00       4.85      1
 39    359.00       4.85      1
 40    340.00       4.85      1
 41    333.00      17.23      1
 42    353.00       9.71      1
 43    372.00       9.71      1
 44    337.00       9.71      1
 45    320.00       9.71      1
 46    360.00     158.06      1
 47    395.00       9.71      1
 48    417.00       4.85      1
 49    415.00       4.85      1
 50    377.00       6.46      1
 51    377.00       8.79      1
 52    397.00       9.71      1
 53    420.00       9.71      1
 ;54    475.00       6.72      1
 55    370.00      37.47      1
 56    370.00      37.47      1
 57    392.00      37.47      1
 58    375.00      37.47      1
 59    377.00      37.47      1
 60    341.00       8.79      1
 61    362.00      37.47      1
 62    312.00      37.47      1
 63    316.00      37.47      1
 64    317.00      37.47      1
 65    346.00      37.47      1
 66    349.00      37.47      1
 67    347.00      37.47      1
 68    423.00      37.47      2
 69    354.00      37.47      1
 ;70    449.00       6.79      2
 ;71    466.00       6.79      2
 ;72    531.00      11.29      2
 ;73    547.00      11.29      2
 ;74    562.00      11.29      2
 ;75    529.00      11.29      2
 ;76    454.00      11.29      2
 ;77    423.00      11.29      2
 ;78    430.00      11.29      2
 ;79    453.00      11.29      2
 ;80    500.00      11.29      2
 ;81    495.00      11.29      2
 ;82    512.00      11.29      2
 ;83    527.00      11.29      2
 ;84    486.00      11.29      2
 ;85    479.00      11.29      2
 ;86    440.00      11.29      2
 ;87    477.00      11.29      2
 ;88    478.00      11.29      2
 89    285.00      42.80      1
 90    265.00      79.21      1
 91    225.00      42.80      1
 92    203.00      42.80      1
 93    190.00      42.80      1
 94    230.00      42.80      1
 95    220.00      42.80      1
 96    172.00      68.06      1
 97    172.00        .00      1
 98    240.00      37.47      1
 99    252.00      37.47      1
100    208.00      37.47      1
101    253.00      37.47      1
102    272.00      37.47      1
103    333.00      37.47      1
104    355.00      37.47      1
105    375.00      37.47      1
106    390.00      37.47      1
107    328.00      37.47      1
108    352.00      37.47      1
109    344.00      37.47      1
110    332.00      37.47      1
111    334.00      49.80      1
112    420.00       9.71      1
113    330.00       9.71      1
114    333.00       7.29      1
115    370.00       7.29      1
116    393.00       7.29      1
117    420.00       7.29      1
118    330.00       9.71      1
119    375.00       7.29      1
120    400.00       9.71      1
121    340.00       9.71      1
122    395.00       7.29      1
123    227.00      42.80      1
124    230.00      42.80      1
125    445.00       4.85      1
126    400.00       4.85      1
127    390.00       4.85      1
128    340.00       4.85      1
129    360.00       4.85      1
130    365.00       8.79      1
131    350.00       4.85      1
132    367.00       8.95      1
133    420.00       8.95      1
134    417.00       8.95      1
135    380.00       7.29      1
136    337.00       7.29      1
150    297.00      35.63      1
160    420.00       6.0       1     ;11.88      1
;163    490.       147.3       3  ;Yew St Zone from Lower Yew Res 60%*245.5
163    490.         1.0       3  ;Lower Yew PS
;167    420.00        .00      1
167    420.         1.0       4  ;Basalm Lane Pump Station Pumpage

[TANKS]
;                 Initial   Minimum   Maximum
;ID   Elevation    Level     Level     Level    Diameter
;--  -----------  -------  ---------  -------   --------
161    499.00      16.02      0.0       20.00    64.0   ; Lower Yew Res
165    499.00      17.11      0.0       20.00    92.3   ; Dakin Res

[PIPES]
;     Head   Tail                        Roughness    Minor Loss    Check
;ID   Node   Node   Length   Diameter   Coefficient   Coefficient   Valve
;--   ----   ----   ------   --------   -----------   -----------   ------
;  1    80     81    470.00      6.00     114.00
;  2    54     71    330.00     10.00     110.00
  3   161      2     50.00     12.00      78.00
  4     2      3   3800.00     12.00      78.00
  5     3      4   1620.00     12.00      78.00
  6     4      5    610.00      8.00     114.00
  7     5      6   1080.00      6.00     114.00
  8     5      6    860.00      6.00     114.00
  9    17     33   1770.00     12.00      90.00
 10    40     43    560.00      6.00     101.00
 11     5      8   1150.00      6.00     112.00
 12     8      9    850.00      6.00      80.00
 13     4      9    730.00     12.00      78.00
 14     9     10    250.00     12.00      78.00
 15    10     11    880.00     12.00      85.00
 16    11     12   2000.00      8.00     110.00
 17    12     13    460.00      8.00     110.00
 18    13     14   1760.00      8.00     110.00
 19    14     16    430.00      6.00     107.00
 20    11     19   1080.00      6.00      90.00
 21    14     20    680.00      6.00     108.00
 22    19     20    360.00      8.00     105.00
 23    42     43    330.00     10.00     114.00
 24    18     19    360.00      8.00      90.00
 25    19     21    550.00      8.00     110.00
 26    21     22    440.00      8.00     105.00
 27    22     23    440.00      8.00     105.00
 28    21     24    790.00      6.00      90.00
 29    18     24    790.00      6.00      90.00
 30    24     25   1650.00      8.00      90.00
 31    25     26    820.00     12.00      80.00
 32    26     27   1640.00     10.00     110.00
 33    27     28   1380.00      6.00      60.00
 34    26     30    190.00      8.00      80.00
 35    29     30    800.00      6.00      90.00
 36    30     31    400.00      8.00      60.00
 37    29     31    640.00      8.00      90.00
 38    25     31    550.00      8.00      90.00
 39    32     34   1300.00     12.00      85.00
 40    32     33    550.00     12.00      80.00
 41    25     33     40.00     12.00      80.00
 42    33      7   1440.00     12.00      90.00
 43    15      7   1100.00     12.00      90.00
 44     1     15   1000.00     16.00     125.00
 45    10   1001   1500.00     16.00      98.00
 46    11     16    360.00     12.00      90.00
 47    55     67    330.00      8.00      84.00
 48    16     17    770.00     12.00      90.00
 49    17     18     50.00      8.00      90.00
 50   103     15    700.00     16.00     125.00
 51   102    103   1220.00      8.00     109.00
 52   101    102    380.00      8.00      82.00
 53   100    101   1510.00      6.00      80.00
 54    99    100    340.00      6.00      85.00
 55    99    102   1680.00      8.00      85.00
 56    99    102   2250.00      6.00      85.00
 57    98     99   1060.00      8.00      85.00
 58    62     98    660.00      8.00      85.00
 59    62    104   2760.00     12.00     120.00
 60   103    104   1240.00     12.00     110.00          2.00
 61   104     69   1150.00      6.00      90.00
 62   111     69    600.00      8.00      90.00
 63   111     69    600.00      8.00      90.00
 64   110    111    890.00      8.00      90.00
 65   109    111    990.00      8.00      90.00
 66   109    110    210.00      8.00      90.00
 67   106    109    780.00      6.00      90.00
 68   105    106    560.00      4.00      90.00
 69   104    105    360.00      6.00      90.00
 70   104    107   1700.00      6.00      90.00
 71   107    108    410.00      4.00      68.00
 72   106    108    620.00      4.00      68.00
 73    61    108   1110.00      6.00      90.00
 74    62    107   1060.00      6.00      90.00
 75    61     62    395.00      8.00      85.00
 76    58     61    340.00      8.00      85.00
 77    58     59    640.00      8.00      85.00
 78    59    110   1090.00     10.00     100.00
 79    59     60    850.00      8.00      85.00
 80    36     60    460.00     10.00      77.00
 81    35     36   1300.00     12.00      85.00
 82    34     35    700.00     12.00      85.00
 83    29     34    710.00      8.00      90.00
 84    36     37    200.00      8.00      85.00
 85    37    128   1000.00      8.00      84.00
 86    38     39    230.00      8.00      58.00
 87    39    131    330.00      8.00      90.00
 88    40     41    320.00      8.00      58.00
 89    41     42    560.00      6.00      82.00
 90    42     44    560.00      6.00      83.00
 91    44     45    560.00      6.00      82.00
 92    45     46    680.00      6.00     113.00
 93    47    121   1520.00     10.00     100.00
 94    47     48    300.00     10.00     114.00
 95    48    127    330.00      6.00     107.00
 96    48    125    650.00     10.00     120.00
 97    49     50    350.00      6.00     114.00
 98    38     50    920.00      6.00      90.00
 99    37     50    980.00      6.00      83.00
100    50     51    440.00      6.00      90.00
101    51    130    330.00     10.00      77.00
102    51     52    335.00     10.00      77.00
103    49     52    430.00     10.00     120.00
104    52     53    340.00     10.00      80.00
105   112     53   1020.00     10.00      80.00
;106   167     54   1180.00     10.00     120.00
107    53     55   1360.00      8.00     110.00
108    55     56     70.00      6.00     110.00
109    56     57   1700.00      6.00     110.00
110    57     58    470.00      6.00     110.00
111    56     57   1520.00      6.00     110.00
112    55     68    630.00      8.00     105.00
113    67     68    800.00      6.00     103.00
114    66     67     90.00      8.00      84.00
115    65     66    200.00      8.00      84.00
116    64     65    240.00      8.00      84.00
117    63     66    820.00      6.00     101.00
118    62     63   1370.00      8.00     106.00
119    63     64    490.00      8.00     106.00
120    64     89   3150.00      8.00      84.00
121    89     90   2300.00      8.00      84.00
122    90     91   3000.00      8.00      84.00
123    91     92   1040.00      6.00      88.00
124    92     93   2200.00     10.00     120.00
125    94    123    610.00     10.00     120.00
126    92     94    780.00     12.00     130.00
127    94     95    740.00     12.00     130.00
128    95     96   1770.00     12.00     130.00
129    96     97     40.00     12.00     130.00
130    89     94   4400.00     12.00     100.00
131    43     47    340.00     10.00     114.00
;132    79     80    800.00      6.00     114.00
;133    70     71    350.00     10.00     110.00
;134    70     71   1810.00      6.00     116.00
;135    54     72   1930.00     10.00     110.00
;136    72     88    890.00      6.00     106.00
;137    87     88    620.00      6.00     106.00
;138    86     87    640.00      6.00     106.00
;139    85     86   1300.00      6.00     117.00
;140    84     85    265.00      6.00     110.00
;141    81     84    300.00      6.00     110.00
;142    84     87    600.00      6.00     110.00
;143    81     82    310.00      6.00     108.00
;144    82     88   1350.00      6.00     108.00
;145    82     83    380.00      6.00     108.00
;146    75     83    410.00      6.00     108.00
;147    74     75    752.00      8.00     111.00
;148    73     74    266.00      8.00     111.00
;149    72     73    522.00     10.00     112.00
;150    75     76   1220.00      8.00     117.00
;151    76     77    820.00      6.00     116.00
;152    77     83   1380.00      6.00     116.00
;153    77     78    340.00      6.00     116.00
;154    78     80   1320.00      6.00     116.00
;155    78     79   1430.00      6.00     116.00
159   165    112     20.00     10.00     110.00
161   113    114   2663.00      8.00     105.00
162   114    116    680.00      6.00      80.00
163   118    136   1690.00      6.00      80.00
164    45    118    370.00      6.00      80.00
165    95    124    600.00     10.00     120.00
166   115    119    670.00     10.00     110.00
167   116    119    300.00      8.00     110.00
168   123    124   1910.00      8.00     120.00
169    46    120    520.00      8.00     110.00
170   120    135   2950.00     10.00     110.00
171   114    115    250.00      8.00     110.00
172    46    121    950.00     10.00     106.00
173    44    121    320.00      6.00     106.00
174   117    119    380.00      8.00     106.00
175   115    122    300.00      8.00     106.00
176    49    126    600.00     10.00     110.00
177   125    126    330.00     10.00     110.00
178   126    127    660.00      6.00     100.00
179    39    127    330.00      6.00     107.00
180    38    128    380.00      8.00     110.00
181   128    129    570.00      8.00     110.00
182   129    130    450.00      8.00     110.00
183    60    130    825.00     10.00      80.00
184    37    129    650.00      6.00     100.00
185    47    131    560.00      8.00     110.00
186    40    131    325.00      8.00     100.00
187     8    132   1080.00      6.00     101.00
188   132    133   1190.00      8.00     110.00
189   133    134    830.00      8.00     110.00
190    12    134    790.00      8.00     110.00
191   117    122    650.00      6.00     110.00
192   116    136    330.00      6.00     108.00
193   119    135    330.00     10.00     110.00
194   135    136    420.00      8.00     110.00
195    90    150   5860.00      6.00     110.00
196   150    160  10463.00      4.00     110.00
197   112     48   3802.00     18.00     120.00
198   112    167     20.       10.       120.
203     2    163    100.       12.       120.

[PUMPS]
;     Head   Tail
;ID   Node   Node   Characteristics
;--   ----  -----   -------------------------------------------------
;198   112   167         7.50
;199   164   168       350.00    260.00   1500.00    150.00   2000.00
;200   164   169       350.00    260.00   1500.00    150.00   2000.00
;201   164   170       375.00    250.00    600.00    150.00    750.00
;201   164   170       350       260      1500       150      2000
;202   164   171       350.00    260.00   1500.00    150.00   2000.00

[VALVES]
;ID
4501    1       1001    16.0    TCV     3000.0   ;Valve in line south

[STATUS]
;ID   Setting
;--   --------
;130   CLOSED
;199   CLOSED

[CONTROL]
;LINK 199 OPEN   IF NODE 161 BELOW 14.5
;LINK 199 OPEN   IF NODE 165 BELOW 14.5
;LINK 200 OPEN   IF NODE 161 BELOW 13.5
;LINK 200 OPEN   IF NODE 165 BELOW 13.5
;LINK 201 OPEN   IF NODE 161 BELOW 13.0
;LINK 201 OPEN   IF NODE 165 BELOW 13.0
;LINK 202 OPEN   IF NODE 165 BELOW 12.7
;LINK 202 OPEN   IF NODE 165 BELOW 12.7
;LINK 199 CLOSED IF NODE 161 ABOVE 18.0
;LINK 199 CLOSED IF NODE 165 ABOVE 18.0
;LINK 200 CLOSED IF NODE 161 ABOVE 18.4
;LINK 200 CLOSED IF NODE 165 ABOVE 18.4
;LINK 201 CLOSED IF NODE 161 ABOVE 19.0
;LINK 201 CLOSED IF NODE 165 ABOVE 19.0
;LINK 202 CLOSED IF NODE 161 ABOVE 18.8
;LINK 202 CLOSED IF NODE 165 ABOVE 18.8

[OPTIONS]
; Network properties & simulation options
;-----------------------------------------
UNITS            GPM
TRIALS            20
ACCURACY    0.005000
HEADLOSS         H-W
MAP  dak-yew5.map
QUALITY CHLORINE
;quality age

[PATTERNS]
;Demand Pattern For Max Day
;1 0.80 0.86 1.00 1.02 1.10 1.18 1.22 1.21 1.29 1.38 1.54 1.69 ;Starting at 7am
;1 1.66 1.49 1.17 0.85 0.79 0.67 0.60 0.52 0.45 0.35 0.51 0.71

;Demand Pattern for 8/3/93-8/4/93
1 0.75 0.81 0.78 0.93 0.97 0.87 1.01 0.94 0.96 0.86 0.96 0.97
1 1.13 1.13 0.97 0.84 0.67 0.57 0.47 0.27 0.21 0.39 0.52 0.73
1 0.82 0.78 0.95 1.18 1.09 1.06 1.01 1.09 0.99 0.99 0.89 1.08

2 1.12 1.34 1.28 1.15 1.07 1.00 1.06 1.17 1.22 1.42 1.59 1.84
2 1.92 1.66 1.06 0.61 0.35 0.23 0.21 0.20 0.25 0.39 0.71 1.15

;3 0.42 0.56 0.38 0.45 0.34 0.53 0.66 0.90 1.05 1.23 1.35 1.16
;3 1.48 1.32 1.42 1.15 1.14 1.13 1.42 1.70 1.43 1.27 0.83 0.69

3 0.0  0.0  0.0  0.0  8.0  0.0  0.0  0.0  0.0 375. 409. 406. ;Lower Yew PS
3 405. 402. 397. 389. 384. 380. 376. 374.  68.  0.0  0.0  0.0 ;St 7am 8/3/93
3  0.0  0.0  0.0  0.0  0.0  0.0  0.0  28. 409. 405. 403. 400.

4 207. 203. 225. 230. 207. 181. 160. 184. 193. 227. 265. 287. ;Balsam Lane PS
4 351. 362. 273. 176. 95.1 51.4 34.7 33.1 36.6 38.3 101. 196. ;St. 7am 8/3/93
4 223. 242. 243. 243. 247. 230. 224. 190. 209. 264. 298. 344.

;Pattern for Dakin HS Pumps input
5   677  684 1446 2635 3223 3316 4315 4326 4309 4281 3927 3089
5  3207 3227 3142 3109 3047 3084 3076 3038 2116 1099  604  692
5   703 1107 2816 4303 4312 4375 4290 4298 4273 3978 3089 3199

;Chlorine in WTP clearwell
6  0.66 0.68 0.69 0.71 0.70 0.68 0.65 0.66 0.68 0.71 0.73 0.76
6  0.73 0.69 0.67 0.68 0.69 0.70 0.66 0.61 0.63 0.65 0.67 0.69
6  0.71 0.73 0.75 0.74 0.73 0.72 0.71 0.70 0.68 0.67 0.66 0.65

;Patterns for Avg Day (Scaled Down by 2.3)
;1 0.35 0.37 0.43 0.44 0.48 0.97 0.53 0.53 0.56 0.60 0.67 0.73
;1 0.72 0.65 0.51 0.37 0.34 0.29 0.26 0.23 0.20 0.15 0.22 0.31
;2 0.83 0.72 0.46 0.27 0.15 0.10 0.09 0.09 0.11 0.17 0.31 0.50
;2 0.49 0.58 0.56 0.50 0.47 0.43 0.46 0.51 0.53 0.62 0.69 0.80
;3 0.18 0.24 0.17 0.20 0.15 0.42 0.29 0.39 0.46 0.53 0.59 0.50
;3 0.64 0.57 0.62 0.50 0.50 0.49 0.62 0.74 0.62 0.55 0.36 0.30

[QUALITY]
; Node1 (Node2) Quality
;------------------------
  1             0.6
  1001          0.6

  2       171   0.5     ;Initial Chlorine in System

  161           0.35    ;0.2     ;Lower Yew Res
  2             0.35    ;0.2
  163           0.35    ;0.2

  165           0.25    ;Dakin Res
  167           0.25
  112           0.25
  38      53    0.3
  113     122   0.3
  135     136   0.3

  27            0.3
  28            0.15

  90            0.4
  150           0.4
  160           0.0  ;.1



[SOURCES]
; Node  Conc    (Pattern)
;------------------------
   1     1.0     6     ;Treatment Plant Clear Well

[REACTION]
GLOBAL BULK -0.833

[TIMES]
DURATION 35

[END]
