[TITLE]
pescara -- Bragalli, D'Ambrosio, Lee, Lodi, Toth (2008)

[JUNCTIONS]
;ID              	Elev        	Demand     	Pattern       
  1         2.90        10.01                     ; 
  2         5.00        12.43                     ; 
  3         3.50         8.50                     ; 
  4         3.80         8.50                     ; 
  5         2.20        12.12                     ; 
  6         7.00         1.63                     ; 
  7         6.50         0.00                     ; 
  8         5.20        33.60                     ; 
  9         4.30         4.38                     ; 
 10         5.20        16.40                     ; 
 11        28.00        29.77                     ; 
 12         3.20         0.49                     ; 
 13         3.20         7.49                     ; 
 14        19.20         6.06                     ; 
 17         4.00         2.77                     ; 
 18         3.50         5.03                     ; 
 19         2.80         4.81                     ; 
 20         2.70        21.04                     ; 
 21         1.80        16.94                     ; 
 22         2.10        10.41                     ; 
 23         2.00         2.17                     ; 
 24        18.70         6.55                     ; 
 25         3.20        10.41                     ; 
 26         1.60         2.78                     ; 
 27         3.80         5.32                     ; 
 28         4.30         3.63                     ; 
 29         3.60        33.00                     ; 
 30         3.20         6.00                     ; 
 31         2.80         6.40                     ; 
 32         1.80         2.96                     ; 
 33         3.80         3.09                     ; 
 34         2.90         3.09                     ; 
 35         3.70         8.79                     ; 
 36         2.10         1.68                     ; 
 37         6.70        12.64                     ; 
 38         6.70        12.64                     ; 
 39         4.20        12.64                     ; 
 40         2.90         5.56                     ; 
 41         2.90         2.60                     ; 
 42        28.50         4.57                     ; 
 44        27.30         7.56                     ; 
 45         1.10         6.21                     ; 
 46         2.50         3.09                     ; 
 47         2.80         0.59                     ; 
 48         3.30        12.63                     ; 
 49         1.80         3.41                     ; 
 50         1.80        13.21                     ; 
 51         1.60         3.87                     ; 
 52         1.80         6.43                     ; 
 53         1.60         2.55                     ; 
 54         3.30         0.00                     ; 
 55         2.50        11.30                     ; 
 56         2.80         3.99                     ; 
 57         3.20         7.75                     ; 
 58         3.60         1.91                     ; 
 59         3.80         0.88                     ; 
 60         3.10         5.14                     ; 
 61         3.00         5.14                     ; 
 62         4.20         7.44                     ; 
 76         4.20         0.00                     ; 
 82         2.10         0.01                     ; 
 83         2.10         0.00                     ; 
 84         3.30         0.54                     ; 
 85         2.10         0.37                     ; 
 86         1.50         6.46                     ; 
 87        19.20        25.00                     ; 
 88         2.10         2.15                     ; 
 89         1.50         1.75                     ; 

[RESERVOIRS]
;ID              	Head        	Pattern         
 15        57.00                     ; 
 43        53.08                     ; 
 65        55.00                     ; 

[TANKS]
;ID              	Elevation   	InitLevel   	MinLevel    	MaxLevel    	Diameter    	MinVol      	VolCurve

[PIPES]
;ID              	Node1           	Node2           	Length      	Diameter    	Roughness   	MinorLoss   	Status
  1   1   2       977.36       100.00       130.00         0.00             Open    ; 
  2   3   4       443.17       150.00       130.00         0.00             Open    ; 
  3   3   5      1410.77       100.00       130.00         0.00             Open    ; 
  4   3   1       269.61       125.00       130.00         0.00             Open    ; 
  5   6   7       116.52       100.00       130.00         0.00             Open    ; 
  6   6   8       203.06       100.00       130.00         0.00             Open    ; 
  7   9   6      2309.14       100.00       130.00         0.00             Open    ; 
  8  10  11      1479.98       150.00       130.00         0.00             Open    ; 
 11  15  14        43.97       350.00       130.00         0.00             Open    ; 
 12  13  17       589.16       200.00       130.00         0.00             Open    ; 
 13  18  13       618.53       200.00       130.00         0.00             Open    ; 
 14  18  19       341.10       200.00       130.00         0.00             Open    ; 
 15  20  18       341.92       100.00       130.00         0.00             Open    ; 
 16  21  20       434.24       100.00       130.00         0.00             Open    ; 
 17  22  23       240.59       100.00       130.00         0.00             Open    ; 
 18  24  25       957.44       200.00       130.00         0.00             Open    ; 
 19  14  24       171.04       350.00       130.00         0.00             Open    ; 
 20  24  17       235.57       300.00       130.00         0.00             Open    ; 
 21  26  17         3.59       200.00       130.00         0.00             Open    ; 
 22  26  27       324.36       200.00       130.00         0.00             Open    ; 
 24  21  22       749.74       100.00       130.00         0.00             Open    ; 
 25  23  21       639.70       100.00       130.00         0.00             Open    ; 
 26  27  23       422.95       100.00       130.00         0.00             Open    ; 
 27  20  27       843.52       125.00       130.00         0.00             Open    ; 
 28  19  20       609.23       100.00       130.00         0.00             Open    ; 
 29  28  29       179.04       150.00       130.00         0.00             Open    ; 
 30  28  30       570.90       100.00       130.00         0.00             Open    ; 
 31  30  28       575.73       100.00       130.00         0.00             Open    ; 
 32  31  32       250.28       100.00       130.00         0.00             Open    ; 
 33  30  33       442.11       100.00       130.00         0.00             Open    ; 
 34  34  30       762.35       100.00       130.00         0.00             Open    ; 
 35  35  36      1124.90       100.00       130.00         0.00             Open    ; 
 36  31  11      1903.75       100.00       130.00         0.00             Open    ; 
 37  37  31       125.51       125.00       130.00         0.00             Open    ; 
 38  37  38       121.27       200.00       130.00         0.00             Open    ; 
 39  19  38        55.32       200.00       130.00         0.00             Open    ; 
 41  40  39       424.86       100.00       130.00         0.00             Open    ; 
 42  40  41        72.80       100.00       130.00         0.00             Open    ; 
 43   9  40       554.08       100.00       130.00         0.00             Open    ; 
 44  33   9       305.53       100.00       130.00         0.00             Open    ; 
 45  41  33       568.35       100.00       130.00         0.00             Open    ; 
 46  34  41        63.81       100.00       130.00         0.00             Open    ; 
 47  39  34       310.76       100.00       130.00         0.00             Open    ; 
 48  12  39      1217.17       200.00       130.00         0.00             Open    ; 
 49  25  12       365.82       150.00       130.00         0.00             Open    ; 
 50  35  25      1408.33       100.00       130.00         0.00             Open    ; 
 51  29  35        33.25       100.00       130.00         0.00             Open    ; 
 52   8  29       720.90       200.00       130.00         0.00             Open    ; 
 53  42  11       441.69       250.00       130.00         0.00             Open    ; 
 54  43  42       332.99       400.00       130.00         0.00             Open    ; 
 55  44  42       229.85       350.00       130.00         0.00             Open    ; 
 56  45  46       500.92       100.00       130.00         0.00             Open    ; 
 57  47  48       232.07       250.00       130.00         0.00             Open    ; 
 58  32  49         5.43       100.00       130.00         0.00             Open    ; 
 59  46  32        66.24       100.00       130.00         0.00             Open    ; 
 60  50  46       232.13       100.00       130.00         0.00             Open    ; 
 61  49  50       154.78       100.00       130.00         0.00             Open    ; 
 62  48  49       645.10       100.00       130.00         0.00             Open    ; 
 63  51  48       157.87       200.00       130.00         0.00             Open    ; 
 64  50  51       645.79       100.00       130.00         0.00             Open    ; 
 65  52  50       206.69       100.00       130.00         0.00             Open    ; 
 66  51  53       156.75       150.00       130.00         0.00             Open    ; 
 68  54  55       152.81       100.00       130.00         0.00             Open    ; 
 70  56  47        52.37       250.00       130.00         0.00             Open    ; 
 71  44  57       394.67       300.00       130.00         0.00             Open    ; 
 72  56  44       774.69       100.00       130.00         0.00             Open    ; 
 73  57  56       435.58       200.00       130.00         0.00             Open    ; 
 74  58  57       899.67       250.00       130.00         0.00             Open    ; 
 75  59  60       198.50       125.00       130.00         0.00             Open    ; 
 76  55  61      1116.15       100.00       130.00         0.00             Open    ; 
 78  52  53       631.80       100.00       130.00         0.00             Open    ; 
 79  45  52       350.97       100.00       130.00         0.00             Open    ; 
 81  61   5       226.03       125.00       130.00         0.00             Open    ; 
 82  60  61       186.77       100.00       130.00         0.00             Open    ; 
 83  58  60       337.24       100.00       130.00         0.00             Open    ; 
 84  62  58       173.09       250.00       130.00         0.00             Open    ; 
 85  62   2       784.45       100.00       130.00         0.00             Open    ; 
 86  59  62        86.39       200.00       130.00         0.00             Open    ; 
 87   4  59       732.93       200.00       130.00         0.00             Open    ; 
 88   2   4       193.78       100.00       130.00         0.00             Open    ; 
 89  65   6      1744.27       100.00       130.00         0.00             Open    ; 
 90  65  76       154.18       250.00       130.00         0.00             Open    ; 
 92  86  45      1635.69       100.00       130.00         0.00             Open    ; 
 93  76   8      1072.69       250.00       130.00         0.00             Open    ; 
 94  82  83         5.00       100.00       130.00         0.00             Open    ; 
 95  82  85       240.05       100.00       130.00         0.00             Open    ; 
 96  22  85       841.63       100.00       130.00         0.00             Open    ; 
 97  26  83       601.58       100.00       130.00         0.00             Open    ; 
 98   5  86      1600.00       100.00       130.00         0.00             Open    ; 
100  54  84       180.00       100.00       130.00         0.00             Open    ; 
102  83  85       240.00       100.00       130.00         0.00             Open    ; 
103  43  87        10.00       150.00       130.00         0.00             Open    ; 
104  55  89       179.54       100.00       130.00         0.00             Open    ; 
105  89  53       331.40       100.00       130.00         0.00             Open    ; 
106  55  88       332.35       100.00       130.00         0.00             Open    ; 
107  88  51       325.03       100.00       130.00         0.00             Open    ; 
108  84  88       113.35       100.00       130.00         0.00             Open    ; 
109  88  89       150.82       100.00       130.00         0.00             Open    ; 
110  55  86       165.43       100.00       130.00         0.00             Open    ; 

[PUMPS]
;ID              	Node1           	Node2           	Parameters

[VALVES]
;ID              	Node1           	Node2           	Diameter    	Type	Setting     	MinorLoss   

[TAGS]

[DEMANDS]
;Junction        	Demand      	Pattern         	Category

[STATUS]
;ID              	Status/Setting

[PATTERNS]
;ID              	Multipliers

[CURVES]
;ID              	X-Value     	Y-Value

[CONTROLS]

[RULES]

[ENERGY]

[EMITTERS]
;Junction        	Coefficient

[QUALITY]
;Node            	InitQual

[SOURCES]
;Node            	Type        	Quality     	Pattern

[REACTIONS]
;Type     	Pipe/Tank       	Coefficient

[REACTIONS]

[MIXING]
;Tank            	Model

[TIMES]
 Duration           	0:00
 Hydraulic Timestep 	1:00 
 Quality Timestep   	0:05 
 Pattern Timestep   	2:00 
 Pattern Start      	0:00 
 Report Timestep    	1:00 
 Report Start       	0:00 
 Start ClockTime    	12 am
 Statistic          	NONE

[REPORT]
 Status           	Yes
 Summary        	No 
 Page		   	0 

[REPORT]
 Status             	Yes
 Summary            	No
 Page               	0

[OPTIONS]
 Units              	LPS
 Headloss           	H-W
 Specific Gravity   	1.0
 Viscosity          	1.0
 Trials             	40
 Accuracy           	0.001
 Unbalanced         	Continue 10
 Pattern            	1
 Demand Multiplier  	1.0
 Emitter Exponent   	0.5
 Quality            	Chlorine mg/L
 Diffusivity        	1.0
 Tolerance          	0.01

[COORDINATES]
;Node            	X-Coord         	Y-Coord
 1               	656582.88       	963296.25       
 2               	657289.06       	963069.50       
 3               	656852.19       	963283.19       
 4               	657294.63       	963262.25       
 5               	657933.44       	963588.94       
 6               	661346.75       	960658.38       
 7               	661252.19       	960607.19       
 8               	661547.63       	960688.13       
 9               	660262.19       	961842.69       
 10              	659947.69       	961952.63       
 11              	659120.75       	962107.19       
 12              	661689.69       	962215.25       
 13              	661623.88       	962717.69       
 14              	662482.81       	962917.75       
 17              	662131.88       	963005.56       
 18              	661006.88       	962760.81       
 19              	660673.44       	962792.06       
 20              	661012.00       	963102.44       
 21              	661221.06       	963474.69       
 22              	661856.94       	963711.13       
 23              	661860.75       	963473.88       
 24              	662326.00       	962957.19       
 25              	662031.81       	962086.69       
 26              	662135.06       	963007.19       
 27              	661853.69       	963051.00       
 28              	661141.50       	961352.25       
 29              	661319.63       	961368.81       
 30              	660878.69       	961712.13       
 31              	660390.13       	962876.63       
 32              	660381.19       	963121.00       
 33              	660557.31       	961781.06       
 34              	660596.63       	962340.81       
 35              	661308.00       	961400.00       
 36              	660857.63       	962345.56       
 37              	660500.44       	962822.94       
 38              	660618.31       	962796.50       
 39              	660651.25       	962646.69       
 40              	660461.31       	962359.19       
 41              	660533.31       	962348.81       
 42              	659046.31       	962535.19       
 44              	659015.00       	962761.75       
 45              	660704.56       	963432.50       
 46              	660447.38       	963119.13       
 47              	659504.06       	963179.19       
 48              	659732.88       	963154.94       
 49              	660377.06       	963121.75       
 50              	660375.88       	963276.44       
 51              	659734.19       	963310.88       
 52              	660371.38       	963483.06       
 53              	659739.94       	963467.50       
 54              	659230.13       	963333.94       
 55              	659229.19       	963481.63       
 56              	659457.44       	963155.31       
 57              	659097.25       	963096.19       
 58              	658198.44       	963134.44       
 59              	658026.94       	963233.88       
 60              	658114.75       	963350.06       
 61              	658119.75       	963536.75       
 62              	658025.81       	963147.50       
 76              	662523.13       	960626.31       
 79              	662528.25       	962839.88       
 80              	662636.56       	960486.38       
 81              	658738.69       	962404.75       
 82              	662454.00       	963567.13       
 83              	662458.63       	963565.25       
 84              	659408.69       	963212.44       
 85              	662548.06       	963787.94       
 86              	659408.69       	963642.06       
 87              	658728.69       	962454.75       
 88              	659408.69       	963325.81       
 89              	659408.69       	963476.63       
 43              	658738.69       	962454.75       
 65              	662568.19       	960492.44       
 15              	662492.56       	962874.81       

[VERTICES]
;Link            	X-Coord         	Y-Coord

[LABELS]
;X-Coord           Y-Coord          Label & Anchor Node

[BACKDROP]
 DIMENSIONS     	656280.19       	960321.30       	662939.25       	963953.02       
 UNITS          	None
 FILE           	
 OFFSET         	0.00            	0.00            

[END]
