[TITLE]
EPANET Example Network 2

[JUNCTIONS]
 1                                    50.0000  ; 
 2                                   100.0000  ; 
 3                                    60.0000  ; 
 4                                    60.0000  ; 
 5                                   100.0000  ; 
 6                                   125.0000  ; 
 7                                   160.0000  ; 
 8                                   110.0000  ; 
 9                                   180.0000  ; 
 10                                  130.0000  ; 
 11                                  185.0000  ; 
 12                                  210.0000  ; 
 13                                  210.0000  ; 
 14                                  200.0000  ; 
 15                                  190.0000  ; 
 16                                  150.0000  ; 
 17                                  180.0000  ; 
 18                                  100.0000  ; 
 19                                  150.0000  ; 
 20                                  170.0000  ; 
 21                                  150.0000  ; 
 22                                  200.0000  ; 
 23                                  230.0000  ; 
 24                                  190.0000  ; 
 25                                  230.0000  ; 
 27                                  130.0000  ; 
 28                                  110.0000  ; 
 29                                  110.0000  ; 
 30                                  130.0000  ; 
 31                                  190.0000  ; 
 32                                  110.0000  ; 
 33                                  180.0000  ; 
 34                                  190.0000  ; 
 35                                  110.0000  ; 
 36                                  110.0000  ; 

[RESERVOIRS]

[TANKS]
 26                                  235.0000      56.7000      50.0000      70.0000      50.0000   98174.7704                                 ; 

[PIPES]
 1                               1                               2                                  2400.0000      12.0000     100.0000       0.0000        ; 
 2                               2                               5                                   800.0000      12.0000     100.0000       0.0000        ; 
 3                               2                               3                                  1300.0000       8.0000     100.0000       0.0000        ; 
 4                               3                               4                                  1200.0000       8.0000     100.0000       0.0000        ; 
 5                               4                               5                                  1000.0000      12.0000     100.0000       0.0000        ; 
 6                               5                               6                                  1200.0000      12.0000     100.0000       0.0000        ; 
 7                               6                               7                                  2700.0000      12.0000     100.0000       0.0000        ; 
 8                               7                               8                                  1200.0000      12.0000     140.0000       0.0000        ; 
 9                               7                               9                                   400.0000      12.0000     100.0000       0.0000        ; 
 10                              8                               10                                 1000.0000       8.0000     140.0000       0.0000        ; 
 11                              9                               11                                  700.0000      12.0000     100.0000       0.0000        ; 
 12                              11                              12                                 1900.0000      12.0000     100.0000       0.0000        ; 
 13                              12                              13                                  600.0000      12.0000     100.0000       0.0000        ; 
 14                              13                              14                                  400.0000      12.0000     100.0000       0.0000        ; 
 15                              14                              15                                  300.0000      12.0000     100.0000       0.0000        ; 
 16                              13                              16                                 1500.0000       8.0000     100.0000       0.0000        ; 
 17                              15                              17                                 1500.0000       8.0000     100.0000       0.0000        ; 
 18                              16                              17                                  600.0000       8.0000     100.0000       0.0000        ; 
 19                              17                              18                                  700.0000      12.0000     100.0000       0.0000        ; 
 20                              18                              32                                  350.0000      12.0000     100.0000       0.0000        ; 
 21                              16                              19                                 1400.0000       8.0000     100.0000       0.0000        ; 
 22                              14                              20                                 1100.0000      12.0000     100.0000       0.0000        ; 
 23                              20                              21                                 1300.0000       8.0000     100.0000       0.0000        ; 
 24                              21                              22                                 1300.0000       8.0000     100.0000       0.0000        ; 
 25                              20                              22                                 1300.0000       8.0000     100.0000       0.0000        ; 
 26                              24                              23                                  600.0000      12.0000     100.0000       0.0000        ; 
 27                              15                              24                                  250.0000      12.0000     100.0000       0.0000        ; 
 28                              23                              25                                  300.0000      12.0000     100.0000       0.0000        ; 
 29                              25                              26                                  200.0000      12.0000     100.0000       0.0000        ; 
 30                              25                              31                                  600.0000      12.0000     100.0000       0.0000        ; 
 31                              31                              27                                  400.0000       8.0000     100.0000       0.0000        ; 
 32                              27                              29                                  400.0000       8.0000     100.0000       0.0000        ; 
 34                              29                              28                                  700.0000       8.0000     100.0000       0.0000        ; 
 35                              22                              33                                 1000.0000       8.0000     100.0000       0.0000        ; 
 36                              33                              34                                  400.0000       8.0000     100.0000       0.0000        ; 
 37                              32                              19                                  500.0000       8.0000     100.0000       0.0000        ; 
 38                              29                              35                                  500.0000       8.0000     100.0000       0.0000        ; 
 39                              35                              30                                 1000.0000       8.0000     100.0000       0.0000        ; 
 40                              28                              35                                  700.0000       8.0000     100.0000       0.0000        ; 
 41                              28                              36                                  300.0000       8.0000     100.0000       0.0000        ; 

[PUMPS]

[VALVES]

[DEMANDS]
 1                                  -694.400000  2                              
 2                                     8.000000  1                              
 3                                    14.000000  1                              
 4                                     8.000000  1                              
 5                                     8.000000  1                              
 6                                     5.000000  1                              
 7                                     4.000000  1                              
 8                                     9.000000  1                              
 9                                    14.000000  1                              
 10                                    5.000000  1                              
 11                                   34.780000  1                              
 12                                   16.000000  1                              
 13                                    2.000000  1                              
 14                                    2.000000  1                              
 15                                    2.000000  1                              
 16                                   20.000000  1                              
 17                                   20.000000  1                              
 18                                   20.000000  1                              
 19                                    5.000000  1                              
 20                                   19.000000  1                              
 21                                   16.000000  1                              
 22                                   10.000000  1                              
 23                                    8.000000  1                              
 24                                   11.000000  1                              
 25                                    6.000000  1                              
 27                                    8.000000  1                              
 28                                    0.000000  1                              
 29                                    7.000000  1                              
 30                                    3.000000  1                              
 31                                   17.000000  1                              
 32                                   17.000000  1                              
 33                                    1.500000  1                              
 34                                    1.500000  1                              
 35                                    0.000000  1                              
 36                                    1.000000  1                              

[EMITTERS]

[STATUS]

[PATTERNS]
; 
 1                                     1.2600       1.0400       0.9700       0.9700       0.8900       1.1900
 1                                     1.2800       0.6700       0.6700       1.3400       2.4600       0.9700
 1                                     0.9200       0.6800       1.4300       0.6100       0.3100       0.7800
 1                                     0.3700       0.6700       1.2600       1.5600       1.1900       1.2600
 1                                     0.6000       1.1000       1.0300       0.7300       0.8800       1.0600
 1                                     0.9900       1.7200       1.1200       1.3400       1.1200       0.9700
 1                                     1.0400       1.1500       0.9100       0.6100       0.6800       0.4600
 1                                     0.5100       0.7400       1.1200       1.3400       1.2600       0.9700
 1                                     0.8200       1.3700       1.0300       0.8100       0.8800       0.8100
 1                                     0.8100
; 
 2                                     0.9600       0.9600       0.9600       0.9600       0.9600       0.9600
 2                                     0.6200       0.0000       0.0000       0.0000       0.0000       0.0000
 2                                     0.8000       1.0000       1.0000       1.0000       1.0000       0.1500
 2                                     0.0000       0.0000       0.0000       0.0000       0.0000       0.0000
 2                                     0.5500       0.9200       0.9200       0.9200       0.9200       0.9000
 2                                     0.9000       0.4500       0.0000       0.0000       0.0000       0.0000
 2                                     0.0000       0.7000       1.0000       1.0000       1.0000       1.0000
 2                                     0.2000       0.0000       0.0000       0.0000       0.0000       0.0000
 2                                     0.0000       0.7400       0.9200       0.9200       0.9200       0.9200
 2                                     0.9200
; 
 3                                     0.9800       1.0200       1.0500       0.9900       0.6400       0.4600
 3                                     0.3500       0.3500       0.3500       0.3500       0.3500       0.3500
 3                                     0.1700       0.1700       0.1300       0.1300       0.1300       0.1500
 3                                     0.1500       0.1500       0.1500       0.1500       0.1500       0.1500
 3                                     0.1500       0.1200       0.1000       0.0800       0.1100       0.0900
 3                                     0.0900       0.0800       0.0800       0.0800       0.0800       0.0800
 3                                     0.0800       0.0900       0.0700       0.0700       0.0900       0.0900
 3                                     0.0900       0.0900       0.0900       0.0900       0.0900       0.0900
 3                                     0.0900       0.0800       0.3500       0.7200       0.8200       0.9200
 3                                     1.0000

[CURVES]

[CONTROLS]

[RULES]

[QUALITY]
 1                                     0.500000
 2                                     0.500000
 3                                     0.500000
 4                                     0.500000
 5                                     0.500000
 6                                     0.500000
 7                                     0.500000
 8                                     0.500000
 9                                     0.500000
 10                                    0.500000
 11                                    0.500000
 12                                    0.500000
 13                                    0.500000
 14                                    0.500000
 15                                    0.500000
 16                                    0.500000
 17                                    0.500000
 18                                    0.500000
 19                                    0.500000
 20                                    0.500000
 21                                    0.500000
 22                                    0.500000
 23                                    0.500000
 24                                    0.500000
 25                                    0.500000
 27                                    0.500000
 28                                    0.500000
 29                                    0.500000
 30                                    0.500000
 31                                    0.500000
 32                                    0.500000
 33                                    0.500000
 34                                    0.500000
 35                                    0.500000
 36                                    0.500000
 26                                    0.100000

[SOURCES]
 1                               CONCEN         0.800000 

[MIXING]
 26                              MIXED          1.0000

[REACTIONS]
 ORDER  BULK            1.00
 ORDER  WALL            1
 ORDER  TANK            1.00
 GLOBAL BULK            -0.300000
 GLOBAL WALL            -1.000000

[ENERGY]
 GLOBAL EFFIC        85.0000
 DEMAND CHARGE       0.0000

[TIMES]
 DURATION            55:00:00
 HYDRAULIC TIMESTEP  1:00:00
 QUALITY TIMESTEP    0:05:00
 REPORT TIMESTEP     1:00:00
 REPORT START        0:00:00
 PATTERN TIMESTEP    1:00:00
 PATTERN START       0:00:00
 RULE TIMESTEP       0:06:00
 START CLOCKTIME     0:00:00
 STATISTIC           NONE

[OPTIONS]
 UNITS               GPM
 PRESSURE            PSI
 HEADLOSS            H-W
 UNBALANCED          STOP
 QUALITY             Chlorine mg/L
 DEMAND MULTIPLIER   1.0000
 EMITTER EXPONENT    0.5000
 VISCOSITY           1.000000
 DIFFUSIVITY         1.000000
 SPECIFIC GRAVITY    1.000000
 TRIALS              40
 ACCURACY            0.00100000
 TOLERANCE           0.01000000
 CHECKFREQ           2
 MAXCHECK            10
 DAMPLIMIT           0.00000000

[REPORT]
 PAGESIZE            0
 STATUS              NO
 SUMMARY             YES
 ENERGY              NO
 MESSAGES            YES
 NODES               NONE
 LINKS               NONE
 Elevation           NO
 Demand              PRECISION 2
 Head                PRECISION 2
 Pressure            PRECISION 2
 Quality             PRECISION 2
 Length              NO
 Diameter            NO
 Flow                PRECISION 2
 Velocity            PRECISION 2
 Headloss            PRECISION 2
 Quality             NO
 State               NO
 Setting             NO
 Reaction            NO

[COORDINATES]
 1                                    21.000000       4.000000
 2                                    19.000000      20.000000
 3                                    11.000000      21.000000
 4                                    14.000000      28.000000
 5                                    19.000000      25.000000
 6                                    28.000000      23.000000
 7                                    36.000000      39.000000
 8                                    38.000000      30.000000
 9                                    36.000000      42.000000
 10                                   37.000000      23.000000
 11                                   37.000000      49.000000
 12                                   39.000000      60.000000
 13                                   38.000000      64.000000
 14                                   38.000000      66.000000
 15                                   37.000000      69.000000
 16                                   27.000000      65.000000
 17                                   27.000000      69.000000
 18                                   23.000000      68.000000
 19                                   21.000000      59.000000
 20                                   45.000000      68.000000
 21                                   51.000000      62.000000
 22                                   54.000000      69.000000
 23                                   35.000000      74.000000
 24                                   37.000000      71.000000
 25                                   35.000000      76.000000
 27                                   39.000000      87.000000
 28                                   49.000000      85.000000
 29                                   42.000000      86.000000
 30                                   47.000000      80.000000
 31                                   37.000000      80.000000
 32                                   23.000000      64.000000
 33                                   56.000000      73.000000
 34                                   56.000000      77.000000
 35                                   43.000000      81.000000
 36                                   53.000000      87.000000
 26                                   33.000000      76.000000

[VERTICES]

[LABELS]
       24.00          7.00  "Pump"         24.00          7.00
       24.00          4.00  "Station"         24.00          4.00
       23.00         77.00  "Tank"         23.00         77.00

[END]
