[TITLE]
EPANET Example Network 2  
Example of modeling a 55-hour fluoride tracer study.  
Measured fluoride data is contained in the file Net2-FL.dat  

[JUNCTIONS]
 1                                    50.0000
 2                                   100.0000
 3                                    60.0000
 4                                    60.0000
 5                                   100.0000
 6                                   125.0000
 7                                   160.0000
 8                                   110.0000
 9                                   180.0000
 10                                  130.0000
 11                                  185.0000
 12                                  210.0000
 13                                  210.0000
 14                                  200.0000
 15                                  190.0000
 16                                  150.0000
 17                                  180.0000
 18                                  100.0000
 19                                  150.0000
 20                                  170.0000
 21                                  150.0000
 22                                  200.0000
 23                                  230.0000
 24                                  190.0000
 25                                  230.0000
 27                                  130.0000
 28                                  110.0000
 29                                  110.0000
 30                                  130.0000
 31                                  190.0000
 32                                  110.0000
 33                                  180.0000
 34                                  190.0000
 35                                  110.0000
 36                                  110.0000

[RESERVOIRS]

[TANKS]
 26                                  235.0000      56.7000      50.0000      70.0000      50.0000   98174.7704 

[PIPES]
 1                               1                               2                                  2400.0000      12.0000     100.0000       0.0000 
 2                               2                               5                                   800.0000      12.0000     100.0000       0.0000 
 3                               2                               3                                  1300.0000       8.0000     100.0000       0.0000 
 4                               3                               4                                  1200.0000       8.0000     100.0000       0.0000 
 5                               4                               5                                  1000.0000      12.0000     100.0000       0.0000 
 6                               5                               6                                  1200.0000      12.0000     100.0000       0.0000 
 7                               6                               7                                  2700.0000      12.0000     100.0000       0.0000 
 8                               7                               8                                  1200.0000      12.0000     140.0000       0.0000 
 9                               7                               9                                   400.0000      12.0000     100.0000       0.0000 
 10                              8                               10                                 1000.0000       8.0000     140.0000       0.0000 
 11                              9                               11                                  700.0000      12.0000     100.0000       0.0000 
 12                              11                              12                                 1900.0000      12.0000     100.0000       0.0000 
 13                              12                              13                                  600.0000      12.0000     100.0000       0.0000 
 14                              13                              14                                  400.0000      12.0000     100.0000       0.0000 
 15                              14                              15                                  300.0000      12.0000     100.0000       0.0000 
 16                              13                              16                                 1500.0000       8.0000     100.0000       0.0000 
 17                              15                              17                                 1500.0000       8.0000     100.0000       0.0000 
 18                              16                              17                                  600.0000       8.0000     100.0000       0.0000 
 19                              17                              18                                  700.0000      12.0000     100.0000       0.0000 
 20                              18                              32                                  350.0000      12.0000     100.0000       0.0000 
 21                              16                              19                                 1400.0000       8.0000     100.0000       0.0000 
 22                              14                              20                                 1100.0000      12.0000     100.0000       0.0000 
 23                              20                              21                                 1300.0000       8.0000     100.0000       0.0000 
 24                              21                              22                                 1300.0000       8.0000     100.0000       0.0000 
 25                              20                              22                                 1300.0000       8.0000     100.0000       0.0000 
 26                              24                              23                                  600.0000      12.0000     100.0000       0.0000 
 27                              15                              24                                  250.0000      12.0000     100.0000       0.0000 
 28                              23                              25                                  300.0000      12.0000     100.0000       0.0000 
 29                              25                              26                                  200.0000      12.0000     100.0000       0.0000 
 30                              25                              31                                  600.0000      12.0000     100.0000       0.0000 
 31                              31                              27                                  400.0000       8.0000     100.0000       0.0000 
 32                              27                              29                                  400.0000       8.0000     100.0000       0.0000 
 34                              29                              28                                  700.0000       8.0000     100.0000       0.0000 
 35                              22                              33                                 1000.0000       8.0000     100.0000       0.0000 
 36                              33                              34                                  400.0000       8.0000     100.0000       0.0000 
 37                              32                              19                                  500.0000       8.0000     100.0000       0.0000 
 38                              29                              35                                  500.0000       8.0000     100.0000       0.0000 
 39                              35                              30                                 1000.0000       8.0000     100.0000       0.0000 
 40                              28                              35                                  700.0000       8.0000     100.0000       0.0000 
 41                              28                              36                                  300.0000       8.0000     100.0000       0.0000 

[PUMPS]

[VALVES]

[DEMANDS]
 1                                  -694.400000    2
 2                                     8.000000    1
 3                                    14.000000    1
 4                                     8.000000    1
 5                                     8.000000    1
 6                                     5.000000    1
 7                                     4.000000    1
 8                                     9.000000    1
 9                                    14.000000    1
 10                                    5.000000    1
 11                                   34.780000    1
 12                                   16.000000    1
 13                                    2.000000    1
 14                                    2.000000    1
 15                                    2.000000    1
 16                                   20.000000    1
 17                                   20.000000    1
 18                                   20.000000    1
 19                                    5.000000    1
 20                                   19.000000    1
 21                                   16.000000    1
 22                                   10.000000    1
 23                                    8.000000    1
 24                                   11.000000    1
 25                                    6.000000    1
 27                                    8.000000    1
 28                                    0.000000    1
 29                                    7.000000    1
 30                                    3.000000    1
 31                                   17.000000    1
 32                                   17.000000    1
 33                                    1.500000    1
 34                                    1.500000    1
 35                                    0.000000    1
 36                                    1.000000    1

[EMITTERS]

[STATUS]

[PATTERNS]
 1                                     1.2600       1.0400       0.9700       0.9700       0.8900       1.1900
 1                                     1.2800       0.6700       0.6700       1.3400       2.4600       0.9700
 1                                     0.9200       0.6800       1.4300       0.6100       0.3100       0.7800
 1                                     0.3700       0.6700       1.2600       1.5600       1.1900       1.2600
 1                                     0.6000       1.1000       1.0300       0.7300       0.8800       1.0600
 1                                     0.9900       1.7200       1.1200       1.3400       1.1200       0.9700
 1                                     1.0400       1.1500       0.9100       0.6100       0.6800       0.4600
 1                                     0.5100       0.7400       1.1200       1.3400       1.2600       0.9700
 1                                     0.8200       1.3700       1.0300       0.8100       0.8800       0.8100
 1                                     0.8100
 2                                     0.9600       0.9600       0.9600       0.9600       0.9600       0.9600
 2                                     0.6200       0.0000       0.0000       0.0000       0.0000       0.0000
 2                                     0.8000       1.0000       1.0000       1.0000       1.0000       0.1500
 2                                     0.0000       0.0000       0.0000       0.0000       0.0000       0.0000
 2                                     0.5500       0.9200       0.9200       0.9200       0.9200       0.9000
 2                                     0.9000       0.4500       0.0000       0.0000       0.0000       0.0000
 2                                     0.0000       0.7000       1.0000       1.0000       1.0000       1.0000
 2                                     0.2000       0.0000       0.0000       0.0000       0.0000       0.0000
 2                                     0.0000       0.7400       0.9200       0.9200       0.9200       0.9200
 2                                     0.9200
 3                                     0.9800       1.0200       1.0500       0.9900       0.6400       0.4600
 3                                     0.3500       0.3500       0.3500       0.3500       0.3500       0.3500
 3                                     0.1700       0.1700       0.1300       0.1300       0.1300       0.1500
 3                                     0.1500       0.1500       0.1500       0.1500       0.1500       0.1500
 3                                     0.1500       0.1200       0.1000       0.0800       0.1100       0.0900
 3                                     0.0900       0.0800       0.0800       0.0800       0.0800       0.0800
 3                                     0.0800       0.0900       0.0700       0.0700       0.0900       0.0900
 3                                     0.0900       0.0900       0.0900       0.0900       0.0900       0.0900
 3                                     0.0900       0.0800       0.3500       0.7200       0.8200       0.9200
 3                                     1.0000

[CURVES]

[CONTROLS]

[QUALITY]
 1                                     1.000000
 2                                     1.000000
 3                                     1.000000
 4                                     1.000000
 5                                     1.000000
 6                                     1.000000
 7                                     1.000000
 8                                     1.000000
 9                                     1.000000
 10                                    1.000000
 11                                    1.000000
 12                                    1.000000
 13                                    1.000000
 14                                    1.000000
 15                                    1.000000
 16                                    1.000000
 17                                    1.000000
 18                                    1.000000
 19                                    1.000000
 20                                    1.000000
 21                                    1.000000
 22                                    1.000000
 23                                    1.000000
 24                                    1.000000
 25                                    1.000000
 27                                    1.000000
 28                                    1.000000
 29                                    1.000000
 30                                    1.000000
 31                                    1.000000
 32                                    1.000000
 33                                    1.000000
 34                                    1.000000
 35                                    1.000000
 36                                    1.000000
 26                                    1.000000

[SOURCES]
 1                               CONCEN         1.000000 3

[MIXING]
 26                              MIXED          1.0000

[REACTIONS]
 ORDER  BULK            1.00
 ORDER  WALL            1
 ORDER  TANK            1.00
 GLOBAL BULK            0.000000
 GLOBAL WALL            0.000000

[ENERGY]
 GLOBAL EFFIC        75.0000
 DEMAND CHARGE       0.0000

[TIMES]
 DURATION            55:00:00
 HYDRAULIC TIMESTEP  1:00:00
 QUALITY TIMESTEP    0:05:00
 REPORT TIMESTEP     1:00:00
 REPORT START        0:00:00
 PATTERN TIMESTEP    1:00:00
 PATTERN START       0:00:00
 RULE TIMESTEP       0:06:00
 START CLOCKTIME     8:00:00
 STATISTIC           NONE

[OPTIONS]
 UNITS               GPM
 PRESSURE            PSI
 HEADLOSS            H-W
 PATTERN             1
 UNBALANCED          CONTINUE 10
 QUALITY             Fluoride mg/L
 DEMAND MULTIPLIER   1.0000
 EMITTER EXPONENT    0.5000
 VISCOSITY           1.000000
 DIFFUSIVITY         1.000000
 SPECIFIC GRAVITY    1.000000
 TRIALS              40
 ACCURACY            0.00100000
 TOLERANCE           0.01000000
 CHECKFREQ           2
 MAXCHECK            10
 DAMPLIMIT           0.00000000

[REPORT]
 PAGESIZE            0
 STATUS              NO
 SUMMARY             YES
 ENERGY              NO
 NODES               ALL
 LINKS               ALL
 Elevation           NO
 Demand              PRECISION 2
 Head                PRECISION 2
 Pressure            PRECISION 2
 Quality             PRECISION 2
 Length              NO
 Diameter            NO
 Flow                PRECISION 2
 Velocity            PRECISION 2
 Headloss            PRECISION 2
 Quality             NO
 State               NO
 Setting             NO
 Reaction            NO
[TAGS]

[RULES]

[COORDINATES]
;Node            	X-Coord         	Y-Coord
 1               	21.00           	4.00            
 2               	19.00           	20.00           
 3               	11.00           	21.00           
 4               	14.00           	28.00           
 5               	19.00           	25.00           
 6               	28.00           	23.00           
 7               	36.00           	39.00           
 8               	38.00           	30.00           
 9               	36.00           	42.00           
 10              	37.00           	23.00           
 11              	37.00           	49.00           
 12              	39.00           	60.00           
 13              	38.00           	64.00           
 14              	38.00           	66.00           
 15              	37.00           	69.00           
 16              	27.00           	65.00           
 17              	27.00           	69.00           
 18              	23.00           	68.00           
 19              	21.00           	59.00           
 20              	45.00           	68.00           
 21              	51.00           	62.00           
 22              	54.00           	69.00           
 23              	35.00           	74.00           
 24              	37.00           	71.00           
 25              	35.00           	76.00           
 27              	39.00           	87.00           
 28              	49.00           	85.00           
 29              	42.00           	86.00           
 30              	47.00           	80.00           
 31              	37.00           	80.00           
 32              	23.00           	64.00           
 33              	56.00           	73.00           
 34              	56.00           	77.00           
 35              	43.00           	81.00           
 36              	53.00           	87.00           
 26              	33.00           	76.00           

[VERTICES]
;Link            	X-Coord         	Y-Coord

[LABELS]
;X-Coord           Y-Coord          Label & Anchor Node
 24.00            7.00             "Pump"                 
 24.00            4.00             "Station"                 
 26.76            77.42            "Tank"                 

[BACKDROP]
 DIMENSIONS     	8.75            	-0.15           	58.25           	91.15           
 UNITS          	None
 FILE           	
 OFFSET         	0.00            	0.00            



[END]