[TITLE]


[JUNCTIONS]
;ID              	Elev        	Demand      	Pattern         
 J-1             	410.105     	5.19        	1               	;
 J-10            	413.3858    	4.41        	1               	;
 J-100           	406.8242    	2.47        	1               	;
 J-101           	413.3858    	2.3         	1               	;
 J-102           	439.6325    	3.07        	1               	;
 J-103           	436.3517    	2.27        	1               	;
 J-104           	439.6325    	3.79        	1               	;
 J-105           	423.2283    	5.62        	1               	;
 J-106           	423.2283    	5.13        	1               	;
 J-107           	442.9134    	1.57        	1               	;
 J-108           	439.6325    	8.62        	1               	;
 J-11            	403.5433    	4.61        	1               	;
 J-110           	426.5092    	1.36        	1               	;
 J-111           	406.8242    	5.25        	1               	;
 J-112           	423.2283    	5.86        	1               	;
 J-113           	426.5092    	3.12        	1               	;
 J-114           	426.5092    	4.68        	1               	;
 J-115           	436.3517    	3.45        	1               	;
 J-116           	436.3517    	10.43       	1               	;
 J-117           	436.3517    	6.11        	1               	;
 J-118           	439.6325    	3.14        	1               	;
 J-119           	426.5092    	6.14        	1               	;
 J-12            	423.2284    	4.38        	1               	;
 J-120           	472.4409    	6.86        	1               	;
 J-121           	469.1601    	5.27        	1               	;
 J-122           	419.9475    	7.39        	1               	;
 J-123           	419.9475    	7.05        	1               	;
 J-124           	449.4751    	3.67        	1               	;
 J-125           	459.3176    	5.7         	1               	;
 J-126           	456.0367    	5.4         	1               	;
 J-127           	472.4409    	2.33        	1               	;
 J-128           	452.7559    	3.66        	1               	;
 J-129           	456.0367    	5.16        	1               	;
 J-13            	442.9134    	2.93        	1               	;
 J-130           	433.0709    	1.01        	1               	;
 J-131           	433.0709    	4.38        	1               	;
 J-132           	452.7559    	5.36        	1               	;
 J-133           	416.6667    	3.16        	1               	;
 J-134           	400.2625    	12.24       	1               	;
 J-135           	472.4409    	6.14        	1               	;
 J-136           	479.0026    	10.26       	1               	;
 J-137           	423.2283    	5.49        	1               	;
 J-138           	436.3517    	2.79        	1               	;
 J-139           	433.0709    	2.67        	1               	;
 J-14            	446.1942    	3.56        	1               	;
 J-140           	446.1942    	6.8         	1               	;
 J-141           	469.1601    	1.72        	1               	;
 J-142           	419.9475    	2.57        	1               	;
 J-143           	423.2283    	1.93        	1               	;
 J-144           	459.3176    	4.55        	1               	;
 J-145           	429.79      	4.27        	1               	;
 J-146           	429.79      	3.64        	1               	;
 J-147           	452.7559    	10.38       	1               	;
 J-148           	462.5984    	3.71        	1               	;
 J-149           	423.2284    	11.9        	1               	;
 J-15            	416.6667    	4.32        	1               	;
 J-150           	413.3858    	5.06        	1               	;
 J-151           	433.0709    	5.49        	1               	;
 J-152           	462.5984    	6.16        	1               	;
 J-153           	449.4751    	5.41        	1               	;
 J-154           	452.7559    	1.93        	1               	;
 J-155           	462.5984    	2.17        	1               	;
 J-156           	426.5092    	2.68        	1               	;
 J-157           	423.2283    	5.04        	1               	;
 J-158           	419.9475    	8.82        	1               	;
 J-159           	452.7559    	6.38        	1               	;
 J-16            	433.0709    	4.38        	1               	;
 J-160           	406.8242    	14.35       	1               	;
 J-162           	452.7559    	5.6         	1               	;
 J-163           	419.9475    	2.06        	1               	;
 J-164           	419.9475    	8.1         	1               	;
 J-165           	436.3517    	7.3         	1               	;
 J-166           	433.0709    	5.45        	1               	;
 J-167           	439.6325    	7.06        	1               	;
 J-168           	449.4751    	6.72        	1               	;
 J-17            	410.105     	7.41        	1               	;
 J-170           	410.105     	7.14        	1               	;
 J-171           	442.9134    	8.41        	1               	;
 J-172           	429.79      	5.18        	1               	;
 J-173           	456.0367    	4.55        	1               	;
 J-174           	439.6325    	22.75       	1               	;
 J-175           	465.8793    	4.24        	1               	;
 J-176           	439.6325    	4.55        	1               	;
 J-177           	423.2284    	7.77        	1               	;
 J-178           	442.9134    	4.7         	1               	;
 J-179           	439.6325    	5.48        	1               	;
 J-18            	465.8793    	1.12        	1               	;
 J-180           	442.9134    	8.73        	1               	;
 J-181           	433.0709    	7.17        	1               	;
 J-182           	426.5092    	3.29        	1               	;
 J-183           	429.79      	3.85        	1               	;
 J-184           	419.9475    	4.44        	1               	;
 J-185           	429.79      	6.23        	1               	;
 J-186           	442.9134    	7.56        	1               	;
 J-187           	426.5092    	4.53        	1               	;
 J-188           	433.0709    	0.15        	1               	;
 J-189           	426.5092    	4.59        	1               	;
 J-19            	406.8242    	3.38        	1               	;
 J-190           	482.2835    	7.18        	1               	;
 J-191           	419.9475    	6.95        	1               	;
 J-192           	426.5092    	7.01        	1               	;
 J-193           	423.2283    	1.71        	1               	;
 J-194           	436.3517    	2.8         	1               	;
 J-195           	439.6325    	3.66        	1               	;
 J-196           	442.9134    	6.55        	1               	;
 J-197           	416.6667    	2.62        	1               	;
 J-198           	433.0709    	5.97        	1               	;
 J-199           	426.5092    	10.57       	1               	;
 J-2             	413.3858    	5.86        	1               	;
 J-20            	416.6667    	4.39        	1               	;
 J-200           	452.7559    	4.86        	1               	;
 J-201           	446.1942    	6.53        	1               	;
 J-202           	469.1601    	3.11        	1               	;
 J-203           	475.7218    	4.11        	1               	;
 J-204           	465.8793    	4.94        	1               	;
 J-206           	419.9475    	6.57        	1               	;
 J-207           	433.0709    	5.34        	1               	;
 J-208           	433.0709    	4.12        	1               	;
 J-209           	442.9134    	11.36       	1               	;
 J-21            	403.5433    	4.39        	1               	;
 J-210           	479.0026    	12.14       	1               	;
 J-211           	426.5092    	3.73        	1               	;
 J-212           	433.0709    	17.01       	1               	;
 J-213           	436.3517    	15.41       	1               	;
 J-214           	452.7559    	5.06        	1               	;
 J-215           	423.2284    	5.84        	1               	;
 J-216           	419.9475    	4.06        	1               	;
 J-217           	442.9134    	2.07        	1               	;
 J-218           	419.9475    	25.35       	1               	;
 J-219           	416.6667    	1.42        	1               	;
 J-22            	419.9475    	4.38        	1               	;
 J-220           	442.9134    	2.6         	1               	;
 J-221           	406.8242    	3.89        	1               	;
 J-222           	433.0709    	5.38        	1               	;
 J-223           	410.105     	2.84        	1               	;
 J-225           	465.8793    	2.78        	1               	;
 J-226           	449.4751    	8.59        	1               	;
 J-227           	449.4751    	2.74        	1               	;
 J-228           	446.1942    	5.65        	1               	;
 J-229           	465.8793    	7.21        	1               	;
 J-23            	429.79      	6.35        	1               	;
 J-230           	426.5092    	4.88        	1               	;
 J-231           	436.3517    	1.27        	1               	;
 J-232           	469.1601    	6.64        	1               	;
 J-233           	416.6667    	2.19        	1               	;
 J-235           	433.0709    	5.53        	1               	;
 J-236           	469.1601    	4.52        	1               	;
 J-237           	469.1601    	5.68        	1               	;
 J-238           	426.5092    	5.91        	1               	;
 J-239           	439.6325    	5.82        	1               	;
 J-24            	452.7559    	1.62        	1               	;
 J-240           	439.6325    	1.05        	1               	;
 J-241           	459.3176    	5.84        	1               	;
 J-242           	446.1942    	6.05        	1               	;
 J-243           	472.4409    	3.77        	1               	;
 J-244           	472.4409    	7.53        	1               	;
 J-245           	429.79      	1.61        	1               	;
 J-246           	452.7559    	7.96        	1               	;
 J-249           	472.4409    	1.24        	1               	;
 J-25            	416.6667    	4.82        	1               	;
 J-250           	439.6325    	10.39       	1               	;
 J-251           	429.79      	4.57        	1               	;
 J-252           	429.79      	7.28        	1               	;
 J-253           	410.105     	1.18        	1               	;
 J-255           	452.7559    	6.25        	1               	;
 J-256           	423.2283    	1.77        	1               	;
 J-257           	485.5643    	1.22        	1               	;
 J-258           	442.9134    	4.41        	1               	;
 J-259           	452.7559    	6.64        	1               	;
 J-26            	452.7559    	2.65        	1               	;
 J-260           	433.0709    	5.62        	1               	;
 J-261           	439.6325    	2.37        	1               	;
 J-262           	439.6325    	5.6         	1               	;
 J-263           	462.5984    	3.64        	1               	;
 J-264           	426.5092    	2.21        	1               	;
 J-265           	436.3517    	7.61        	1               	;
 J-266           	416.6667    	3.9         	1               	;
 J-267           	436.3517    	6.91        	1               	;
 J-268           	433.0709    	1.51        	1               	;
 J-269           	469.1601    	0.09        	1               	;
 J-27            	436.3517    	9.35        	1               	;
 J-270           	433.0709    	1.88        	1               	;
 J-271           	429.79      	4.67        	1               	;
 J-272           	469.1601    	5.94        	1               	;
 J-273           	457.4409    	0           	                	;
 J-274           	457.5984    	3.85        	1               	;
 J-275           	396.9816    	9.87        	1               	;
 J-276           	406.8242    	13.14       	1               	;
 J-277           	413.3858    	3.17        	1               	;
 J-28            	452.7559    	3.29        	1               	;
 J-29            	436.3517    	5.03        	1               	;
 J-3             	433.0709    	4.46        	1               	;
 J-30            	426.5092    	5.57        	1               	;
 J-31            	426.5092    	2.36        	1               	;
 J-32            	423.2284    	2.27        	1               	;
 J-33            	426.5092    	4.26        	1               	;
 J-34            	456.0367    	2.66        	1               	;
 J-35            	416.6667    	0           	                	;
 J-36            	439.6325    	12.7        	1               	;
 J-37            	449.4751    	1.26        	1               	;
 J-38            	413.3858    	5.7         	1               	;
 J-39            	416.6667    	4.53        	1               	;
 J-4             	419.9475    	2.35        	1               	;
 J-40            	419.9475    	8.53        	1               	;
 J-41            	416.6667    	5.27        	1               	;
 J-42            	423.2283    	5.04        	1               	;
 J-43            	426.5092    	5.03        	1               	;
 J-44            	433.0709    	4.39        	1               	;
 J-45            	426.5092    	2.36        	1               	;
 J-46            	439.6325    	4.4         	1               	;
 J-47            	439.6325    	0           	                	;
 J-48            	462.5984    	8.09        	1               	;
 J-49            	413.3858    	4.97        	1               	;
 J-5             	406.8242    	8.42        	1               	;
 J-50            	419.9475    	2.17        	1               	;
 J-51            	433.0709    	2.6         	1               	;
 J-52            	436.3517    	1.82        	1               	;
 J-53            	419.9475    	5.09        	1               	;
 J-54            	410.105     	6.23        	1               	;
 J-55            	419.9475    	4.45        	1               	;
 J-56            	403.5433    	2.35        	1               	;
 J-57            	419.9475    	4.37        	1               	;
 J-58            	400.2625    	96.84       	1               	;
 J-59            	416.6667    	12.03       	1               	;
 J-6             	406.8242    	2.76        	1               	;
 J-61            	406.8242    	13.61       	1               	;
 J-62            	419.9475    	1.98        	1               	;
 J-63            	416.6667    	8.35        	1               	;
 J-64            	446.1942    	5.05        	1               	;
 J-65            	433.0709    	4.45        	1               	;
 J-66            	433.0709    	3.16        	1               	;
 J-67            	433.0709    	4.64        	1               	;
 J-68            	429.79      	5.12        	1               	;
 J-69            	429.79      	5.2         	1               	;
 J-7             	406.8242    	5.41        	1               	;
 J-70            	429.79      	1.26        	1               	;
 J-71            	419.9475    	2.09        	1               	;
 J-72            	426.5092    	2.13        	1               	;
 J-73            	426.5092    	3.25        	1               	;
 J-74            	442.9134    	0           	                	;
 J-75            	416.6667    	4.68        	1               	;
 J-8             	413.3858    	4.97        	1               	;
 J-80            	416.6667    	4.3         	1               	;
 J-81            	446.1942    	0           	                	;
 J-82            	429.79      	5.59        	1               	;
 J-83            	433.0709    	6.57        	1               	;
 J-84            	446.1942    	4.82        	1               	;
 J-85            	419.9475    	4.66        	1               	;
 J-86            	442.9134    	0.36        	1               	;
 J-87            	433.0709    	4.26        	1               	;
 J-88            	423.2283    	5.07        	1               	;
 J-89            	459.3176    	5.7         	1               	;
 J-9             	403.5433    	4.41        	1               	;
 J-90            	449.4751    	2.52        	1               	;
 J-91            	406.8242    	4.47        	1               	;
 J-92            	416.6667    	1.77        	1               	;
 J-93            	423.2284    	0.64        	1               	;
 J-94            	429.79      	5.51        	1               	;
 J-95            	449.4751    	1.33        	1               	;
 J-96            	433.0709    	8.09        	1               	;
 J-97            	429.79      	2.58        	1               	;
 J-98            	416.6667    	2.51        	1               	;
 J-99            	429.79      	6.28        	1               	;
 I-Pump-1        	410.105     	0           	                	;
 I-Pump-2        	344.4882    	0           	                	;
 O-Pump-3        	472.4409    	0           	                	;
 I-Pump-4        	473.2843    	0           	                	;
 I-Pump-5        	472.4409    	0           	                	;
 O-Pump-1        	410.105     	0           	                	;
 O-Pump-2        	344.4882    	0           	                	;
 I-Pump-3        	472.4409    	0           	                	;
 O-Pump-4        	473.2843    	0           	                	;
 O-Pump-5        	472.4409    	0           	                	;

[RESERVOIRS]
;ID              	Head        	Pattern         
 R-1             	472.441     	                	;
 R-2             	341         	                	;
 R-3             	400         	                	;

[TANKS]
;ID              	Elevation   	InitLevel   	MinLevel    	MaxLevel    	Diameter    	MinVol      	VolCurve
 T-1             	459.3176    	150.6824    	140.6824    	160.6824    	65          	0           	                	;
 T-2             	452.7559    	152.2441    	147.2441    	172.2441    	58          	0           	                	;
 T-3             	465.8793    	104.1207    	94.12073    	129.1207    	44          	0           	                	;

[PIPES]
;ID              	Node1           	Node2           	Length      	Diameter    	Roughness   	MinorLoss   	Status
 P-1             	J-1             	J-2             	758.71      	6           	100         	0           	Open  	;
 P-10            	J-17            	J-276           	1300.28     	8           	100         	0           	Open  	;
 P-100           	J-83            	J-53            	491.73      	8           	100         	0           	Open  	;
 P-101           	J-88            	J-42            	445.299     	8           	100         	0           	Open  	;
 P-102           	J-101           	J-276           	992.179     	8           	100         	0           	Open  	;
 P-103           	J-29            	J-27            	432.69      	8           	100         	0           	Open  	;
 P-104           	J-11            	J-1             	788.76      	10          	100         	0           	Open  	;
 P-105           	J-19            	J-9             	445.239     	10          	100         	0           	Open  	;
 P-106           	J-100           	J-19            	105.839     	10          	100         	0           	Open  	;
 P-107           	J-21            	J-11            	430.429     	10          	100         	0           	Open  	;
 P-108           	J-1             	J-5             	744.95      	10          	100         	0           	Open  	;
 P-109           	J-102           	J-103           	664.32      	6           	150         	0           	Open  	;
 P-11            	J-19            	J-20            	762.349     	6           	100         	0           	Open  	;
 P-110           	J-104           	J-102           	267.16      	6           	150         	0           	Open  	;
 P-111           	J-105           	J-106           	65.76       	12          	150         	0           	Open  	;
 P-112           	J-107           	J-102           	59.909      	6           	150         	0           	Open  	;
 P-113           	J-108           	J-48            	2085.169    	8           	150         	0           	Open  	;
 P-114           	J-106           	J-110           	135.74      	12          	150         	0           	Open  	;
 P-115           	J-111           	J-112           	486.579     	4           	150         	0           	Open  	;
 P-116           	J-113           	J-114           	234.789     	12          	150         	0           	Open  	;
 P-117           	J-115           	J-116           	668.34      	6           	150         	0           	Open  	;
 P-118           	J-117           	J-118           	988.619     	6           	150         	0           	Open  	;
 P-119           	J-119           	J-114           	1513.339    	8           	150         	0           	Open  	;
 P-12            	J-21            	J-22            	757.5       	6           	100         	0           	Open  	;
 P-120           	J-120           	J-121           	677.409     	8           	150         	0           	Open  	;
 P-121           	J-122           	J-123           	853.89      	6           	150         	0           	Open  	;
 P-122           	J-124           	J-125           	508.579     	6           	150         	0           	Open  	;
 P-123           	J-126           	J-127           	698.94      	6           	150         	0           	Open  	;
 P-124           	J-128           	J-129           	484.109     	6           	150         	0           	Open  	;
 P-125           	J-130           	J-131           	72.209      	4           	150         	0           	Open  	;
 P-126           	J-129           	J-132           	837.099     	6           	150         	0           	Open  	;
 P-127           	J-133           	J-134           	1120.77     	8           	150         	0           	Open  	;
 P-128           	J-135           	J-136           	463.609     	6           	150         	0           	Open  	;
 P-129           	J-125           	J-129           	346.29      	6           	150         	0           	Open  	;
 P-13            	J-23            	J-24            	605.729     	10          	100         	0           	Open  	;
 P-130           	J-130           	J-137           	353.459     	12          	150         	0           	Open  	;
 P-131           	J-138           	J-139           	303.76      	8           	150         	0           	Open  	;
 P-132           	J-140           	J-141           	742.15      	8           	150         	0           	Open  	;
 P-133           	J-142           	J-143           	179.8       	8           	150         	0           	Open  	;
 P-134           	J-144           	J-140           	797.669     	6           	150         	0           	Open  	;
 P-135           	J-145           	J-146           	326.48      	8           	150         	0           	Open  	;
 P-136           	J-147           	J-148           	415.359     	6           	150         	0           	Open  	;
 P-137           	J-149           	J-150           	666.13      	6           	150         	0           	Open  	;
 P-138           	J-151           	J-130           	83.849      	12          	150         	0           	Open  	;
 P-139           	J-128           	J-132           	364.94      	6           	150         	0           	Open  	;
 P-14            	J-8             	J-25            	556.64      	10          	100         	0           	Open  	;
 P-140           	J-152           	J-48            	11.27       	6           	150         	0           	Open  	;
 P-141           	J-154           	J-148           	435.679     	6           	150         	0           	Open  	;
 P-142           	J-126           	J-155           	700.929     	6           	150         	0           	Open  	;
 P-143           	J-156           	J-119           	684.64      	8           	150         	0           	Open  	;
 P-144           	J-157           	J-158           	426.299     	6           	150         	0           	Open  	;
 P-145           	J-159           	J-144           	215.309     	6           	150         	0           	Open  	;
 P-146           	J-160           	J-36            	5429.319    	8           	150         	0           	Open  	;
 P-147           	J-132           	J-162           	193.46      	6           	150         	0           	Open  	;
 P-148           	J-163           	J-164           	251.97      	8           	150         	0           	Open  	;
 P-149           	J-165           	J-166           	413.809     	12          	150         	0           	Open  	;
 P-15            	J-26            	J-27            	857.32      	6           	100         	0           	Open  	;
 P-150           	J-167           	J-168           	890.869     	12          	150         	0           	Open  	;
 P-151           	R-1             	I-Pump-5        	113.44      	8           	150         	0           	Open  	;
 P-152           	J-133           	J-170           	135.63      	12          	150         	0           	Open  	;
 P-153           	J-164           	J-171           	2162.409    	8           	150         	0           	Open  	;
 P-154           	J-172           	J-124           	341.79      	6           	150         	0           	Open  	;
 P-155           	J-132           	J-173           	334.89      	6           	150         	0           	Open  	;
 P-156           	J-138           	J-174           	237.919     	8           	150         	0           	Open  	;
 P-157           	J-140           	J-175           	505.82      	6           	150         	0           	Open  	;
 P-158           	J-176           	J-140           	453.82      	8           	150         	0           	Open  	;
 P-159           	J-177           	J-106           	1038.979    	4           	150         	0           	Open  	;
 P-16            	J-28            	J-29            	832.039     	6           	100         	0           	Open  	;
 P-160           	J-178           	J-179           	474.829     	12          	150         	0           	Open  	;
 P-161           	J-180           	J-120           	1025.109    	8           	150         	0           	Open  	;
 P-162           	J-181           	J-149           	1664.439    	6           	150         	0           	Open  	;
 P-163           	J-146           	J-138           	660.039     	8           	150         	0           	Open  	;
 P-164           	J-182           	J-183           	659.429     	12          	150         	0           	Open  	;
 P-165           	J-137           	J-122           	991.809     	4           	150         	0           	Open  	;
 P-166           	J-184           	J-185           	1521.589    	8           	150         	0           	Open  	;
 P-167           	J-186           	J-104           	219.38      	6           	150         	0           	Open  	;
 P-168           	J-187           	J-113           	1517.099    	12          	150         	0           	Open  	;
 P-169           	J-188           	J-96            	3.17        	8           	150         	0           	Open  	;
 P-17            	J-30            	J-31            	762.239     	6           	100         	0           	Open  	;
 P-170           	J-156           	J-183           	197.479     	8           	150         	0           	Open  	;
 P-171           	J-124           	J-128           	336.57      	6           	150         	0           	Open  	;
 P-172           	J-183           	J-189           	1534.28     	12          	150         	0           	Open  	;
 P-173           	J-190           	J-135           	1052.219    	6           	150         	0           	Open  	;
 P-174           	J-191           	J-192           	903.09      	6           	150         	0           	Open  	;
 P-175           	J-142           	J-193           	553.52      	6           	150         	0           	Open  	;
 P-176           	J-115           	J-145           	328.5       	8           	150         	0           	Open  	;
 P-177           	J-194           	J-146           	272.549     	8           	150         	0           	Open  	;
 P-178           	J-163           	J-143           	209.6       	12          	150         	0           	Open  	;
 P-179           	J-195           	J-196           	393.989     	2           	150         	0           	Open  	;
 P-18            	J-32            	J-33            	725.58      	6           	100         	0           	Open  	;
 P-180           	J-114           	J-197           	519.789     	12          	150         	0           	Open  	;
 P-181           	J-198           	J-144           	459.149     	6           	150         	0           	Open  	;
 P-182           	J-199           	J-173           	950.679     	6           	150         	0           	Open  	;
 P-183           	J-200           	J-201           	629.01      	6           	150         	0           	Open  	;
 P-184           	J-184           	J-113           	263.29      	12          	150         	0           	Open  	;
 P-185           	J-202           	J-203           	1045.339    	8           	150         	0           	Open  	;
 P-186           	J-204           	J-18            	490.339     	8           	150         	0           	Open  	;
 P-187           	J-206           	J-207           	796.32      	6           	150         	0           	Open  	;
 P-188           	J-208           	J-209           	312.89      	6           	150         	0           	Open  	;
 P-189           	J-199           	J-172           	348.369     	6           	150         	0           	Open  	;
 P-19            	J-34            	J-28            	237         	12          	100         	0           	Open  	;
 P-190           	J-119           	J-182           	198.38      	8           	150         	0           	Open  	;
 P-191           	J-117           	J-104           	737.739     	6           	150         	0           	Open  	;
 P-192           	J-210           	J-136           	969.83      	4           	150         	0           	Open  	;
 P-193           	J-202           	J-135           	443.7       	12          	150         	0           	Open  	;