[TITLE]


[JUNCTIONS]
;ID              	Elev        	Demand      	Pattern         
 J-10            	828.8445    	3.32        	1               	;
 J-100           	790.9639    	3.58        	1               	;
 J-101           	794.6306    	2.93        	1               	;
 J-102           	802.1594    	3.02        	1               	;
 J-104           	817.7249    	27.49       	1               	;
 J-105           	796.4333    	3.16        	1               	;
 J-106           	790.2957    	30.12       	1               	;
 J-107           	816.2297    	4.3         	1               	;
 J-108           	794.1237    	4.72        	1               	;
 J-109           	782.7518    	1.06        	1               	;
 J-11            	818.2994    	1.67        	1               	;
 J-110           	787.2466    	4.43        	1               	;
 J-111           	782.9852    	6.76        	1               	;
 J-112           	802.0513    	6.38        	1               	;
 J-113           	795.7542    	3.65        	1               	;
 J-114           	792.9813    	0.78        	1               	;
 J-115           	803.8035    	3.27        	1               	;
 J-116           	802.1408    	1.69        	1               	;
 J-117           	780.9288    	4.73        	1               	;
 J-118           	796.9921    	0.75        	1               	;
 J-119           	800.8981    	3.57        	1               	;
 J-12            	838.1457    	11.3        	1               	;
 J-120           	776.6381    	3.11        	1               	;
 J-121           	774.3021    	5.57        	1               	;
 J-122           	767.2404    	5.88        	1               	;
 J-123           	766.9856    	2.66        	1               	;
 J-124           	766.7805    	0.37        	1               	;
 J-125           	834.1751    	8.75        	1               	;
 J-126           	836.0001    	2.67        	1               	;
 J-127           	831.3358    	4.93        	1               	;
 J-128           	793.6392    	9.38        	1               	;
 J-129           	801.9901    	7.76        	1               	;
 J-13            	847.291     	8.2         	1               	;
 J-130           	772.8477    	1.61        	1               	;
 J-131           	831.684     	3.8         	1               	;
 J-132           	773.8129    	4.68        	1               	;
 J-133           	763.1392    	2.43        	1               	;
 J-134           	787.2431    	2.91        	1               	;
 J-135           	791.768     	3.64        	1               	;
 J-136           	811.9827    	4.67        	1               	;
 J-137           	832.6207    	0.62        	1               	;
 J-138           	793.5883    	7           	1               	;
 J-139           	786.4223    	6.75        	1               	;
 J-14            	834.1526    	3.85        	1               	;
 J-140           	788.9087    	5.27        	1               	;
 J-141           	799.5566    	4.46        	1               	;
 J-142           	783.3803    	8.76        	1               	;
 J-143           	782.3546    	10.59       	1               	;
 J-144           	768.5918    	2.76        	1               	;
 J-145           	774.3886    	6.72        	1               	;
 J-146           	791.876     	5.55        	1               	;
 J-147           	786.7598    	4.47        	1               	;
 J-148           	795.0909    	1           	1               	;
 J-149           	791.4926    	0           	                	;
 J-15            	828.3569    	12.26       	1               	;
 J-150           	815.4116    	1.73        	1               	;
 J-151           	814.3098    	5.94        	1               	;
 J-152           	808.559     	3.72        	1               	;
 J-153           	830         	0           	                	;
 J-154           	831.8247    	0           	                	;
 J-155           	817.0548    	3.11        	1               	;
 J-156           	818.0138    	2.65        	1               	;
 J-157           	848.9992    	2.8         	1               	;
 J-158           	849.0745    	0.12        	1               	;
 J-159           	816.0419    	8.55        	1               	;
 J-16            	801.1484    	5.11        	1               	;
 J-160           	815.791     	1.67        	1               	;
 J-161           	800.3026    	2.45        	1               	;
 J-162           	819.8542    	7.09        	1               	;
 J-163           	798.8856    	3.79        	1               	;
 J-164           	829.5526    	4.1         	1               	;
 J-165           	828.7344    	1.6         	1               	;
 J-166           	801.2444    	3.6         	1               	;
 J-167           	808.8815    	7.61        	1               	;
 J-168           	809.2352    	2.53        	1               	;
 J-169           	816.5959    	0           	                	;
 J-17            	801.6494    	6.14        	1               	;
 J-170           	817.6552    	1.41        	1               	;
 J-171           	784.408     	7.63        	1               	;
 J-172           	769.4605    	5.07        	1               	;
 J-173           	781.4521    	4.68        	1               	;
 J-174           	842.5783    	3.82        	1               	;
 J-175           	847.9591    	0.76        	1               	;
 J-176           	848.5935    	6.41        	1               	;
 J-177           	763.2322    	2.6         	1               	;
 J-178           	768.3831    	3.87        	1               	;
 J-179           	818.9085    	2.42        	1               	;
 J-18            	801.1096    	4.64        	1               	;
 J-180           	806.2142    	6.32        	1               	;
 J-181           	793.332     	1.55        	1               	;
 J-182           	821.8295    	4.86        	1               	;
 J-183           	800.599     	2.68        	1               	;
 J-184           	845.7887    	0.95        	1               	;
 J-185           	792.998     	2.98        	1               	;
 J-186           	847.0595    	3.37        	1               	;
 J-187           	821.3698    	2.84        	1               	;
 J-188           	829.2183    	4.14        	1               	;
 J-189           	770.6395    	1.84        	1               	;
 J-19            	800.1249    	2.99        	1               	;
 J-190           	814.8903    	6.36        	1               	;
 J-191           	798.9071    	2.21        	1               	;
 J-192           	783.508     	4.11        	1               	;
 J-193           	787.2745    	4.61        	1               	;
 J-194           	804.6121    	2.15        	1               	;
 J-195           	805.8224    	4.78        	1               	;
 J-196           	852.1768    	1.97        	1               	;
 J-197           	820.007     	0.76        	1               	;
 J-198           	791.9252    	0.97        	1               	;
 J-199           	794.7231    	4.92        	1               	;
 J-2             	789.5876    	0           	                	;
 J-20            	774.7957    	2.54        	1               	;
 J-200           	812.0537    	4.09        	1               	;
 J-201           	815.2474    	1.94        	1               	;
 J-202           	794.4698    	4.72        	1               	;
 J-203           	848.1268    	1.98        	1               	;
 J-204           	846.6216    	10.61       	1               	;
 J-205           	755.0457    	0.13        	1               	;
 J-206           	753.1669    	1.68        	1               	;
 J-207           	849.7301    	6.52        	1               	;
 J-208           	840.1483    	9.99        	1               	;
 J-209           	845.5858    	11.97       	1               	;
 J-21            	778.5852    	1.5         	1               	;
 J-210           	846.3683    	1.86        	1               	;
 J-211           	823.7883    	8.09        	1               	;
 J-212           	822.3411    	5.61        	1               	;
 J-213           	765.5276    	3.75        	1               	;
 J-214           	773.0233    	2.37        	1               	;
 J-215           	777.9929    	3.34        	1               	;
 J-216           	777.6078    	1.69        	1               	;
 J-217           	796.6075    	7.32        	1               	;
 J-218           	788.0509    	1.22        	1               	;
 J-219           	794.8295    	3.85        	1               	;
 J-22            	833.7238    	12.47       	1               	;
 J-220           	795.0597    	0.28        	1               	;
 J-223           	813.1891    	2.3         	1               	;
 J-224           	764.7073    	6.39        	1               	;
 J-225           	752.0433    	3.51        	1               	;
 J-226           	838.3704    	7.7         	1               	;
 J-227           	839.9761    	5.56        	1               	;
 J-228           	820.1144    	3.19        	1               	;
 J-229           	789.3262    	0           	                	;
 J-23            	848.528     	8.89        	1               	;
 J-230           	797.2837    	5.96        	1               	;
 J-231           	796.7621    	6.05        	1               	;
 J-232           	798.2814    	5.91        	1               	;
 J-233           	845.4043    	1.42        	1               	;
 J-234           	841.5645    	1.66        	1               	;
 J-235           	781.0895    	3.4         	1               	;
 J-236           	797.2643    	3.31        	1               	;
 J-237           	793.5228    	3.49        	1               	;
 J-238           	718.9197    	9.27        	1               	;
 J-239           	799.7146    	5.93        	1               	;
 J-24            	772.5317    	0.8         	1               	;
 J-240           	814.5552    	4.34        	1               	;
 J-242           	805.35      	2.61        	1               	;
 J-243           	831.8956    	5.66        	1               	;
 J-244           	810.8175    	3.96        	1               	;
 J-245           	791.7729    	10.67       	1               	;
 J-246           	773.9565    	1.56        	1               	;
 J-247           	837.7095    	1.82        	1               	;
 J-248           	839.933     	20.93       	1               	;
 J-249           	810.4707    	4.05        	1               	;
 J-25            	765.8198    	0.43        	1               	;
 J-250           	790.7003    	18.86       	1               	;
 J-252           	847.7175    	0.14        	1               	;
 J-253           	855.956     	2.54        	1               	;
 J-254           	806.4176    	2.24        	1               	;
 J-255           	792.9711    	3.09        	1               	;
 J-256           	820.8139    	4.01        	1               	;
 J-258           	820         	8.6         	1               	;
 J-259           	832.9716    	0.64        	1               	;
 J-26            	769.2095    	2.62        	1               	;
 J-260           	827.7749    	13.87       	1               	;
 J-261           	849.7714    	1.42        	1               	;
 J-262           	769.0292    	2.38        	1               	;
 J-263           	832.3708    	20.13       	1               	;
 J-264           	827.4453    	2.07        	1               	;
 J-265           	769.5087    	1.29        	1               	;
 J-266           	825.8301    	2.12        	1               	;
 J-267           	801.8317    	11.63       	1               	;
 J-269           	847.4963    	4.32        	1               	;
 J-27            	806.6712    	2.53        	1               	;
 J-271           	843.0148    	1.83        	1               	;
 J-273           	777.1981    	3.23        	1               	;
 J-274           	847.7908    	0.14        	1               	;
 J-275           	833.6733    	2.41        	1               	;
 J-276           	851.1453    	0.88        	1               	;
 J-277           	837.8567    	2.23        	1               	;
 J-278           	845.9016    	1.93        	1               	;
 J-28            	824.7031    	0.11        	1               	;
 J-282           	845.3043    	1.01        	1               	;
 J-284           	800.1439    	4.17        	1               	;
 J-285           	827.2924    	2.3         	1               	;
 J-289           	778.7175    	3.38        	1               	;
 J-29            	841.1129    	3.14        	1               	;
 J-290           	811.0945    	2.16        	1               	;
 J-291           	821.3145    	2.32        	1               	;
 J-292           	817.2158    	5.93        	1               	;
 J-293           	816.3916    	6.21        	1               	;
 J-294           	843.4979    	1.4         	1               	;
 J-295           	844.3936    	3.35        	1               	;
 J-296           	846.0858    	5.74        	1               	;
 J-297           	846.0169    	5.82        	1               	;
 J-298           	841.485     	5.97        	1               	;
 J-299           	847.8912    	4.28        	1               	;
 J-3             	831.1293    	0           	                	;
 J-30            	830.4042    	0.12        	1               	;
 J-300           	785.1967    	2.4         	1               	;
 J-301           	846.9297    	5.17        	1               	;
 J-302           	841.5295    	9.47        	1               	;
 J-303           	844.2431    	0.13        	1               	;
 J-304           	842.5818    	5.25        	1               	;
 J-305           	846.1216    	5.01        	1               	;
 J-306           	843.1842    	0.79        	1               	;
 J-307           	832.7841    	6.82        	1               	;
 J-308           	827.6897    	7.07        	1               	;
 J-309           	803.7831    	2.48        	1               	;
 J-31            	835.7934    	4.88        	1               	;
 J-310           	755.3441    	0.83        	1               	;
 J-311           	816.4731    	1.43        	1               	;
 J-312           	788.3543    	0.89        	1               	;
 J-313           	808.313     	5.41        	1               	;
 J-314           	817.7527    	3.66        	1               	;
 J-315           	843.1024    	2           	1               	;
 J-316           	805.1683    	3.55        	1               	;
 J-317           	832.0784    	4.88        	1               	;
 J-318           	830.2332    	1.87        	1               	;
 J-319           	834.8745    	5.38        	1               	;
 J-32            	765.8771    	0.98        	1               	;
 J-320           	808.5887    	3.47        	1               	;
 J-321           	840.4983    	3.08        	1               	;
 J-322           	795.3024    	1.12        	1               	;
 J-323           	814.0168    	0.41        	1               	;
 J-324           	779.3544    	2.94        	1               	;
 J-325           	770.5901    	1.3         	1               	;
 J-327           	801.9966    	0.65        	1               	;
 J-328           	807.4794    	5.21        	1               	;
 J-329           	801.8053    	3.24        	1               	;
 J-33            	815.3002    	4.75        	1               	;
 J-330           	800.7545    	5.03        	1               	;
 J-331           	801.1031    	1.09        	1               	;
 J-332           	848.9556    	0.22        	1               	;
 J-333           	828.6303    	5.61        	1               	;
 J-334           	801.5906    	8.18        	1               	;
 J-335           	840.1256    	0.5         	1               	;
 J-336           	778.2983    	2.77        	1               	;
 J-337           	785.5931    	2.72        	1               	;
 J-338           	840.3649    	3.69        	1               	;
 J-339           	842.7824    	0.56        	1               	;
 J-34            	808.8909    	1.62        	1               	;
 J-340           	817.6592    	0.36        	1               	;
 J-341           	777.0864    	5.2         	1               	;
 J-342           	775.9942    	10.3        	1               	;
 J-343           	811.4502    	1.76        	1               	;
 J-344           	809.0619    	1.56        	1               	;
 J-345           	788.5825    	3.45        	1               	;
 J-346           	804.6553    	1           	1               	;
 J-347           	848.5305    	5.41        	1               	;
 J-348           	779.8533    	0.44        	1               	;
 J-349           	787.9268    	2.98        	1               	;
 J-350           	807.998     	4.37        	1               	;
 J-351           	817.6287    	6.18        	1               	;
 J-353           	753.8628    	0.15        	1               	;
 J-354           	848.7176    	2.63        	1               	;
 J-355           	781.6063    	4.51        	1               	;
 J-356           	773.031     	0.2         	1               	;
 J-357           	786.5272    	1.78        	1               	;
 J-36            	794.8693    	2.85        	1               	;
 J-360           	771.6101    	3.42        	1               	;
 J-361           	770.9758    	5.82        	1               	;
 J-362           	822.0267    	1.4         	1               	;
 J-363           	790.5926    	4.84        	1               	;
 J-364           	834.4853    	1.24        	1               	;
 J-365           	835.2874    	4.7         	1               	;
 J-366           	837.8425    	2.35        	1               	;
 J-367           	838.2403    	10.73       	1               	;
 J-368           	826.6315    	1.88        	1               	;
 J-369           	767.9528    	4.53        	1               	;
 J-37            	848.9241    	3.93        	1               	;
 J-370           	813.7955    	5.87        	1               	;
 J-371           	808.231     	6.5         	1               	;
 J-372           	807.4274    	1.46        	1               	;
 J-373           	824.9922    	2.22        	1               	;
 J-374           	812         	1.09        	1               	;
 J-375           	810.9966    	6.03        	1               	;
 J-376           	837.6099    	1.98        	1               	;
 J-377           	839.5812    	0.56        	1               	;
 J-378           	779.7324    	2.46        	1               	;
 J-379           	835.8257    	1.64        	1               	;
 J-38            	835.2093    	8.86        	1               	;
 J-380           	827.7276    	2.75        	1               	;
 J-381           	798.3246    	0.79        	1               	;
 J-382           	773.5259    	2.45        	1               	;
 J-383           	820         	12.99       	1               	;
 J-384           	801.9998    	3.07        	1               	;
 J-385           	804.7753    	0.56        	1               	;
 J-386           	824.4662    	1.87        	1               	;
 J-387           	809.8323    	1.47        	1               	;
 J-388           	811.3403    	7.39        	1               	;
 J-389           	792.7795    	2.2         	1               	;
 J-390           	810.5739    	0.62        	1               	;
 J-391           	770.8436    	0.7         	1               	;
 J-393           	768.5461    	1.25        	1               	;
 J-394           	846.1167    	1.93        	1               	;
 J-395           	778.2656    	11.41       	1               	;
 J-396           	819.9219    	0.44        	1               	;
 J-397           	791.9307    	4.18        	1               	;
 J-398           	763.1334    	3.93        	1               	;
 J-399           	811.9775    	0.17        	1               	;
 J-4             	808.8466    	2.44        	1               	;
 J-40            	852.3708    	2.4         	1               	;
 J-400           	803         	2.55        	1               	;
 J-401           	829.7053    	1.64        	1               	;
 J-402           	832.2203    	4.89        	1               	;
 J-406           	783.7897    	3           	1               	;
 J-407           	772.4271    	0.14        	1               	;
 J-408           	768.339     	0.23        	1               	;
 J-409           	801.4498    	4.17        	1               	;
 J-41            	851.2064    	0.74        	1               	;
 J-410           	773.2093    	5.11        	1               	;
 J-411           	804.5766    	1.36        	1               	;
 J-412           	764.0233    	1.06        	1               	;
 J-413           	770.0999    	0.27        	1               	;
 J-414           	795.2169    	4.12        	1               	;
 J-415           	772.3864    	1.92        	1               	;
 J-416           	799.251     	1.03        	1               	;
 J-417           	837.4109    	3.14        	1               	;
 J-418           	773.179     	4.37        	1               	;
 J-419           	796.3238    	4.3         	1               	;
 J-42            	839.3698    	3.63        	1               	;
 J-420           	804.7853    	0.88        	1               	;
 J-421           	824.394     	2.79        	1               	;
 J-422           	795.898     	3.36        	1               	;
 J-423           	793.3004    	5.96        	1               	;
 J-424           	792.5258    	2.61        	1               	;
 J-425           	775.6345    	2.26        	1               	;
 J-426           	827.0205    	0.94        	1               	;
 J-427           	769.7067    	0.81        	1               	;
 J-429           	800.1978    	1.62        	1               	;
 J-43            	852.42      	2.64        	1               	;
 J-44            	803.1959    	8.52        	1               	;
 J-45            	805.8344    	9.75        	1               	;
 J-46            	817.9249    	6.46        	1               	;
 J-47            	810.1208    	4.36        	1               	;
 J-48            	818.6525    	7.88        	1               	;
 J-49            	809.3203    	3.03        	1               	;
 J-5             	817.9852    	0           	                	;
 J-50            	814.7765    	3.09        	1               	;
 J-51            	852.8066    	2.67        	1               	;
 J-52            	786.9318    	6.69        	1               	;
 J-53            	801.5938    	2.31        	1               	;
 J-54            	788.6907    	1.68        	1               	;
 J-55            	802.8809    	2.6         	1               	;
 J-56            	843.1617    	4.16        	1               	;
 J-57            	845.6056    	2.21        	1               	;
 J-58            	845.6475    	2.58        	1               	;
 J-59            	841.0788    	0.14        	1               	;
 J-6             	835.7264    	0           	                	;
 J-60            	852.981     	4.05        	1               	;
 J-61            	852.1229    	1.28        	1               	;
 J-62            	804.257     	5.89        	1               	;
 J-63            	830.3045    	3.55        	1               	;
 J-64            	789.5798    	2.17        	1               	;
 J-65            	793.3044    	0.42        	1               	;
 J-66            	835.8278    	2.86        	1               	;
 J-67            	832.6392    	6.79        	1               	;
 J-68            	792         	4.49        	1               	;
 J-69            	787.0961    	7.81        	1               	;
 J-7             	779.9771    	4.72        	1               	;
 J-70            	802.2471    	5.58        	1               	;
 J-71            	788.7918    	2.71        	1               	;
 J-72            	797.1779    	3.08        	1               	;
 J-73            	801.5491    	7.97        	1               	;
 J-74            	798.6482    	8.4         	1               	;
 J-75            	815.9398    	3.22        	1               	;
 J-76            	797.8838    	1.85        	1               	;
 J-77            	792.0991    	2.11        	1               	;
 J-78            	773.3942    	2.46        	1               	;
 J-79            	773.2668    	0.12        	1               	;
 J-8             	837.0383    	3.54        	1               	;
 J-80            	802.2539    	6.37        	1               	;
 J-81            	800         	7.78        	1               	;
 J-82            	780.243     	3.15        	1               	;
 J-83            	821.5419    	0.94        	1               	;
 J-84            	798.0248    	2.66        	1               	;
 J-85            	815.5989    	6.1         	1               	;
 J-86            	843.2295    	7.18        	1               	;
 J-87            	838.6764    	5.95        	1               	;
 J-88            	803.9924    	6.25        	1               	;
 J-89            	795.9047    	1.95        	1               	;
 J-9             	823.9887    	7.42        	1               	;
 J-90            	794.0544    	3.97        	1               	;
 J-91            	836.0414    	4.7         	1               	;
 J-92            	850.2725    	5.05        	1               	;
 J-93            	797.4409    	1.62        	1               	;
 J-94            	800.4238    	6.14        	1               	;
 J-95            	808.9937    	5.78        	1               	;
 J-96            	808.9899    	3.73        	1               	;
 J-97            	807.4824    	5.62        	1               	;
 J-98            	839.1347    	3.88        	1               	;
 J-99            	835.9493    	6.27        	1               	;
 O-Pump-1        	781.616     	0           	                	;
 I-Pump-2        	611.7775    	0           	                	;
 I-Pump-3        	611.6825    	0           	                	;
 O-Pump-4        	609.5184    	0           	                	;
 I-Pump-5        	642.8569    	0           	                	;
 O-Pump-6        	637.6563    	0           	                	;
 O-Pump-7        	829.1792    	0           	                	;
 O-Pump-8        	620.5346    	0           	                	;
 I-Pump-9        	766.757     	0           	                	;
 I-Pump-1        	781.616     	0           	                	;
 O-Pump-2        	611.7775    	0           	                	;
 O-Pump-3        	611.6825    	0           	                	;
 I-Pump-4        	609.5184    	0           	                	;
 O-Pump-5        	642.8569    	0           	                	;
 I-Pump-6        	637.6563    	0           	                	;
 I-Pump-7        	829.1792    	0           	                	;
 I-Pump-8        	620.5346    	0           	                	;
 O-Pump-9        	766.757     	0           	                	;
 I-Pump-7a       	829.1792    	0           	                	;
 O-Pump-7a       	829.1792    	0           	                	;
 I-Pump-9a       	766.757     	0           	                	;
 O-Pump-9a       	766.757     	0           	                	;

[RESERVOIRS]
;ID              	Head        	Pattern         
 R-1             	623.9983    	                	;
 R-2             	611.8937    	                	;
 R-3             	609.03      	                	;
 R-4             	659.2836    	                	;

[TANKS]
;ID              	Elevation   	InitLevel   	MinLevel    	MaxLevel    	Diameter    	MinVol      	VolCurve
 T-1             	887.3956    	62.60437    	57.60437    	82.60437    	53          	0           	                	;
 T-2             	901.4387    	28.56128    	23.56128    	58.56128    	68          	0           	                	;
 T-3             	898.1403    	51.85968    	26.85968    	61.85968    	68          	0           	                	;

[PIPES]
;ID              	Node1           	Node2           	Length      	Diameter    	Roughness   	MinorLoss   	Status
 P-10            	J-16            	J-17            	293.57      	4           	150         	0           	Open  	;
 P-100           	J-163           	J-74            	520.219     	6           	150         	0           	Open  	;
 P-101           	J-164           	J-165           	570.26      	10          	150         	0           	Open  	;
 P-102           	J-166           	J-167           	378.85      	4           	150         	0           	Open  	;
 P-103           	J-152           	J-4             	46.81       	10          	150         	0           	Open  	;
 P-104           	J-169           	J-170           	192.22      	10          	150         	0           	Open  	;
 P-105           	J-171           	J-172           	586.71      	6           	150         	0           	Open  	;
 P-106           	J-173           	J-141           	802         	6           	150         	0           	Open  	;
 P-107           	J-174           	J-92            	400.589     	6           	150         	0           	Open  	;
 P-108           	J-175           	J-58            	112.41      	8           	150         	0           	Open  	;
 P-109           	J-99            	J-176           	1780.29     	6           	150         	0           	Open  	;
 P-11            	J-18            	J-19            	373.649     	6           	150         	0           	Open  	;
 P-110           	J-177           	J-178           	283.29      	6           	150         	0           	Open  	;
 P-111           	J-135           	J-17            	732.659     	10          	150         	0           	Open  	;
 P-112           	J-81            	J-80            	348.549     	6           	150         	0           	Open  	;
 P-113           	J-68            	J-138           	516.95      	4           	150         	0           	Open  	;
 P-114           	J-162           	J-179           	326.17      	6           	150         	0           	Open  	;
 P-115           	J-84            	J-180           	333.619     	10          	150         	0           	Open  	;
 P-116           	J-181           	J-128           	95.709      	6           	150         	0           	Open  	;
 P-117           	J-179           	J-182           	388.329     	6           	150         	0           	Open  	;
 P-118           	J-183           	J-18            	357.16      	2           	150         	0           	Open  	;