[TITLE]


[JUNCTIONS]
;ID              	Elev        	Demand      	Pattern         
 B10             	111.9767081 	0           	                	;				
 B11             	112.3345493 	0           	                	;				
 B6              	121.1107905 	0           	                	;				
 B7              	114.4140771 	0           	                	;				
 B9              	118.5751624 	0           	                	;				
 C1              	122.5349305 	0.15854896  	                	;				
 C10             	121.1519426 	0.507356672 	                	;				
 C11             	113.6279958 	2.885591071 	                	;				
 C12             	114.7471658 	2.346524607 	                	;				
 C13             	121.1704421 	2.600202943 	                	;				
 C14             	124.2994124 	1.078132927 	                	;				
 C15             	111.2380067 	1.395230847 	                	;				
 C16             	111.8527703 	0.761035008 	                	;				
 C17             	124.1455101 	0.380517504 	                	;				
 C18             	107.6377755 	0.63419584  	                	;				
 C19             	119.2705056 	1.078132927 	                	;				
 C2              	115.930969  	0.761035008 	                	;				
 C20             	120.0295086 	1.078132927 	                	;				
 C21             	109.9031425 	1.902587519 	                	;				
 C22             	107.371149  	0.63419584  	                	;				
 C23             	122.7995796 	2.441653983 	                	;				
 C24             	122.5033214 	0.31709792  	                	;				
 C25             	121.8901361 	0.887874176 	                	;				
 C26             	109.1904968 	0.761035008 	                	;				
 C27             	114.1359827 	1.585489599 	                	;				
 C28             	115.3484088 	0.7927448   	                	;				
 C29             	117.8208288 	2.029426687 	                	;				
 C3              	109.326126  	1.204972095 	                	;				
 C30             	106.013688  	1.395230847 	                	;				
 C31             	113.9824402 	0.507356672 	                	;				
 C32             	123.227886  	0.856164384 	                	;				
 C33             	124.3623443 	0.031709792 	                	;				
 C34             	121.9713736 	1.870877727 	                	;				
 C35             	118.6451216 	0.887874176 	                	;				
 C36             	116.411171  	1.490360223 	                	;				
 C37             	117.8177135 	1.363521055 	                	;				
 C38             	116.9711318 	0.539066464 	                	;				
 C39             	120.9961349 	0.31709792  	                	;				
 C4              	108.178794  	0.887874176 	                	;				
 C40             	115.729459  	0.31709792  	                	;				
 C41             	119.216174  	0.380517504 	                	;				
 C43             	115.8560663 	2.156265855 	                	;				
 C44             	107.0913833 	0.031709792 	                	;				
 C45             	119.8894593 	1.046423135 	                	;				
 C46             	105.3640216 	0.528848864 	                	;				
 C47             	104.4134845 	3.04414003  	                	;				
 C48             	109.0737035 	0.095129376 	                	;				
 C49             	113.5596461 	1.046423135 	                	;				
 C5              	110.3455312 	2.505073567 	                	;				
 C50             	112.5656207 	1.268391679 	                	;				
 C51             	121.9173145 	0.031709792 	                	;				
 C52             	117.1115797 	0.602486048 	                	;				
 C54             	113.860072  	0.539066464 	                	;				
 C55             	113.8601657 	0.31709792  	                	;				
 C56             	118.1083084 	0.31709792  	                	;				
 C6              	122.7730631 	0.7927448   	                	;				
 C7              	122.4547303 	0.856164384 	                	;				
 C8              	118.2902303 	4.724759006 	                	;				
 C9              	111.1905826 	0.63419584  	                	;				
 chng_J1         	122.2936847 	0.348807712 	                	;				
 NJ10            	123.1425047 	0           	                	;				
 NJ100           	118.9629871 	0           	                	;				
 NJ101           	118.9639837 	0           	                	;				
 NJ102           	121.1145262 	0           	                	;				
 NJ103           	121.9481567 	0           	                	;				
 NJ104           	123.3607235 	0           	                	;				
 NJ105           	123.5527693 	0           	                	;				
 NJ106           	124.0273588 	0           	                	;				
 NJ107           	116.669828  	0           	                	;				
 NJ108           	114.3573757 	0           	                	;				
 NJ109           	114.3248357 	0           	                	;				
 NJ11            	105.3688741 	0           	                	;				
 NJ110           	114.1632823 	0           	                	;				
 NJ111           	115.0117055 	0           	                	;				
 NJ112           	115.3117819 	0           	                	;				
 NJ113           	115.8258544 	0           	                	;				
 NJ114           	115.8478066 	0           	                	;				
 NJ115           	115.8523059 	0           	                	;				
 NJ116           	116.14325   	0           	                	;				
 NJ117           	108.7048506 	0           	                	;				
 NJ118           	107.4157059 	0           	                	;				
 NJ119           	111.6826597 	0           	                	;				
 NJ12            	114.4052897 	0           	                	;				
 NJ122           	108.9791985 	0           	                	;				
 NJ123           	106.8460188 	0           	                	;				
 NJ125           	123.6782759 	0           	                	;				
 NJ13            	115.1316722 	0           	                	;				
 NJ14            	114.7865544 	0           	                	;				
 NJ16            	116.8854141 	0           	                	;				
 NJ17            	116.9424341 	0           	                	;				
 NJ18            	117.7715434 	0           	                	;				
 NJ2             	116.309939  	0           	                	;				
 NJ22            	118.836681  	0           	                	;				
 NJ23            	119.3056465 	0           	                	;				
 NJ24            	121.0508823 	0           	                	;				
 NJ25            	121.4576682 	0           	                	;				
 NJ27            	122.3023414 	0           	                	;				
 NJ28            	121.781833  	0           	                	;				
 NJ29            	121.644389  	0           	                	;				
 NJ3             	115.918799  	0           	                	;				
 NJ30            	120.3502409 	0           	                	;				
 NJ31            	116.5106438 	0           	                	;				
 NJ32            	112.5926573 	0.285388128 	                	;				
 NJ33            	117.802328  	0           	                	;				
 NJ37            	109.941775  	0           	                	;				
 NJ41            	105.5039951 	0.073637184 	                	;				
 NJ5             	114.4034715 	0           	                	;				
 NJ50            	121.3607886 	0.063419584 	                	;				
 NJ52            	123.4863514 	0           	                	;				
 NJ55            	122.0412726 	0           	                	;				
 NJ6             	114.7762376 	0           	                	;				
 NJ60            	115.5425261 	0           	                	;				
 NJ61            	114.1374729 	0           	                	;				
 NJ62            	114.3501377 	0           	                	;				
 NJ63            	116.991759  	0           	                	;				
 NJ64            	116.5927417 	0           	                	;				
 NJ65            	118.632583  	0           	                	;				
 NJ66            	118.9236905 	0           	                	;				
 NJ67            	118.1645365 	0           	                	;				
 NJ68            	118.5284775 	0           	                	;				
 NJ69            	118.4920997 	0           	                	;				
 NJ7             	105.6646751 	0           	                	;				
 NJ70            	118.4079664 	0           	                	;				
 NJ71            	119.1862016 	0           	                	;				
 NJ72            	120.4720849 	0           	                	;				
 NJ73            	119.8169237 	0           	                	;				
 NJ74            	120.2867871 	0           	                	;				
 NJ77            	120.8396402 	0           	                	;				
 NJ78            	120.4872832 	0           	                	;				
 NJ80            	119.1415723 	0           	                	;				
 NJ81            	118.1459011 	0           	                	;				
 NJ82            	117.808331  	0           	                	;				
 NJ83            	117.3840257 	0           	                	;				
 NJ85            	119.7250267 	0           	                	;				
 NJ86            	117.4352665 	0           	                	;				
 NJ87            	117.3592229 	0           	                	;				
 NJ88            	117.3383156 	0           	                	;				
 NJ89            	121.2732868 	0           	                	;				
 NJ9             	124.1174978 	0           	                	;				
 NJ90            	121.1735674 	0           	                	;				
 NJ92            	123.0250409 	0           	                	;				
 NJ93            	122.9508127 	0           	                	;				
 NJ94            	115.5178275 	0           	                	;				
 NJ95            	115.8710039 	0           	                	;				
 NJ96            	116.5980191 	0           	                	;				
 NJ97            	117.8580219 	0           	                	;				
 NJ98            	117.0194197 	0           	                	;				
 NJ99            	120.5777848 	0           	                	;				
 Tank1           	108.942604  	0.232538475 	                	;				
 Tank2           	106.7812307 	0.232538475 	                	;				
 Tank3           	113.6940268 	0.232538475 	                	;				
 Tank4           	122.2859997 	0.232538475 	                	;				
 Tank5           	123.5838616 	0.232538475 	                	;				
 Tank6           	123.0433427 	0.232538475 	                	;				
 AN1             	116.3754985 	1.014713343 	                	;				
 WW1025          	105.1918992 	0           	                	;				
 WW1182          	105.5344039 	0           	                	;				
 WW1197          	105.5857446 	0           	                	;				
 WW1291          	105.7020982 	0           	                	;				
 WW1318          	105.8208498 	0           	                	;				
 WW1325          	105.8201542 	0           	                	;				
 WW1419          	106.0221428 	0           	                	;				
 WW1475          	106.1468972 	0           	                	;				
 WW1487          	106.1364478 	0           	                	;				
 WW1493          	106.1615623 	0           	                	;				
 WW1693          	106.4812645 	0           	                	;				
 WW1709          	106.5040943 	0           	                	;				
 WW1925          	106.6051958 	0           	                	;				
 WW2055          	106.6844762 	0           	                	;				
 WW2103          	106.701846  	0           	                	;				
 WW2432          	106.8917517 	0           	                	;				
 WW2448          	107.0126924 	0           	                	;				
 WW2450          	107.1465539 	0           	                	;				
 WW2476          	107.4435571 	0           	                	;				
 WW2486          	107.6126387 	0           	                	;				
 WW2489          	107.6232527 	0           	                	;				
 WW2511          	107.9286094 	0           	                	;				
 WW2521          	108.0349459 	0           	                	;				
 WW2530          	108.0545752 	0           	                	;				
 WW2535          	108.105949  	0           	                	;				
 WW2548          	108.3123673 	0           	                	;				
 WW2549          	108.3480291 	0           	                	;				
 WW2571          	108.508867  	0           	                	;				
 WW2574          	108.5439986 	0           	                	;				
 WW2576          	108.5953113 	0           	                	;				
 WW2582          	108.6372785 	0           	                	;				
 WW2599          	108.7908953 	0           	                	;				
 WW2618          	108.9245978 	0           	                	;				
 WW2632          	109.0201651 	0           	                	;				
 WW2634          	109.0476137 	0           	                	;				
 WW2659          	109.218618  	0           	                	;				
 WW2680          	109.3060311 	0           	                	;				
 WW2681          	109.2611445 	0           	                	;				
 WW2692          	109.4453921 	0           	                	;				
 WW2695          	109.4301918 	0           	                	;				
 WW2702          	109.5310889 	0           	                	;				
 WW2710          	109.4808361 	0           	                	;				
 WW2711          	109.5441553 	0           	                	;				
 WW2712          	109.5441694 	0           	                	;				
 WW2763          	109.7000311 	0           	                	;				
 WW2776          	109.7695516 	0           	                	;				
 WW2793          	109.8539366 	0           	                	;				
 WW2817          	109.8941778 	0           	                	;				
 WW2838          	109.9429904 	0           	                	;				
 WW2894          	110.1734878 	0           	                	;				
 WW2906          	110.1894088 	0           	                	;				
 WW2971          	110.5552003 	0           	                	;				
 WW2998          	110.6359756 	0           	                	;				
 WW3058          	110.9590069 	0           	                	;				
 WW3065          	110.9957374 	0           	                	;				
 WW3086          	111.0948224 	0           	                	;				
 WW3094          	111.2067327 	0           	                	;				
 WW3105          	111.2811036 	0           	                	;				
 WW3145          	111.459238  	0           	                	;				
 WW3177          	111.5585976 	0           	                	;				
 WW3184          	111.5623856 	0           	                	;				
 WW3185          	111.6125133 	0           	                	;				
 WW3215          	111.697715  	0           	                	;				
 WW3219          	111.7717012 	0           	                	;				
 WW3260          	111.8822111 	0           	                	;				
 WW3282          	112.0453983 	0           	                	;				
 WW3339          	112.1444492 	0           	                	;				
 WW3563          	112.2121085 	0           	                	;				
 WW3580          	112.2580652 	0           	                	;				
 WW3589          	112.3018362 	0           	                	;				
 WW3592          	112.2474557 	0           	                	;				
 WW3594          	112.2482239 	0           	                	;				
 WW3604          	112.2911843 	0           	                	;				
 WW3610          	112.2751104 	0           	                	;				
 WW3621          	112.3202354 	0           	                	;				
 WW3629          	112.3374684 	0           	                	;				
 WW3646          	112.4006321 	0           	                	;				
 WW3665          	112.4339095 	0           	                	;				
 WW3671          	112.4610227 	0           	                	;				
 WW3677          	112.5040468 	0           	                	;				
 WW3693          	112.6561859 	0           	                	;				
 WW3744          	112.9394522 	0           	                	;				
 WW3747          	112.9607122 	0           	                	;				
 WW3750          	112.9665858 	0           	                	;				
 WW3766          	113.0060225 	0           	                	;				
 WW3781          	113.0712384 	0           	                	;				
 WW3796          	113.1053501 	0           	                	;				
 WW3823          	113.1534326 	0           	                	;				
 WW3834          	113.1803427 	0           	                	;				
 WW3842          	113.2651122 	0           	                	;				
 WW3843          	113.311166  	0           	                	;				
 WW3887          	113.5971228 	0           	                	;				
 WW3895          	113.6382612 	0           	                	;				
 WW3904          	113.7033296 	0           	                	;				
 WW3906          	113.7358794 	0           	                	;				
 WW3913          	113.7431878 	0           	                	;				
 WW3920          	113.7889316 	0           	                	;				
 WW3926          	113.7891471 	0           	                	;				
 WW3946          	113.9256101 	0           	                	;				
 WW3959          	113.9491378 	0           	                	;				
 WW4026          	114.1589679 	0           	                	;				
 WW4042          	114.2191397 	0           	                	;				
 WW4069          	114.3281772 	0           	                	;				
 WW4114          	114.4922616 	0           	                	;				
 WW4116          	114.5102751 	0           	                	;				
 WW4158          	114.7922231 	0           	                	;				
 WW4167          	114.9394161 	0           	                	;				
 WW4179          	114.9523499 	0           	                	;				
 WW4181          	114.9589002 	0           	                	;				
 WW4184          	114.9790595 	0           	                	;				
 WW4205          	115.0424942 	0           	                	;				
 WW4209          	114.9923391 	0           	                	;				
 WW4213          	115.0697405 	0           	                	;				
 WW4233          	115.2066122 	0           	                	;				
 WW4235          	115.2172699 	0           	                	;				
 WW4260          	115.416751  	0           	                	;				
 WW4346          	115.8260827 	0           	                	;				
 WW4375          	115.902237  	0           	                	;				
 WW4376          	115.9147198 	0           	                	;				
 WW4433          	116.1737963 	0           	                	;				
 WW4442          	116.1462892 	0           	                	;				
 WW4444          	116.170729  	0           	                	;				
 WW4503          	116.4314264 	0           	                	;				
 WW4505          	116.4602134 	0           	                	;				
 WW4510          	116.5141936 	0           	                	;				
 WW4518          	116.5543738 	0           	                	;				
 WW4544          	116.618869  	0           	                	;				
 WW4546          	116.6149978 	0           	                	;				
 WW4566          	116.6723771 	0           	                	;				
 WW4640          	117.1956289 	0           	                	;				
 WW4669          	117.2711286 	0           	                	;				
 WW4708          	117.3173884 	0           	                	;				
 WW4714          	117.3898076 	0           	                	;				
 WW4727          	117.4348756 	0           	                	;				
 WW4766          	117.7268735 	0           	                	;				
 WW4767          	117.6888398 	0           	                	;				
 WW4821          	117.8830677 	0           	                	;				
 WW4860          	118.0324415 	0           	                	;				
 WW4922          	118.3699719 	0           	                	;				
 WW4948          	118.4778382 	0           	                	;				
 WW4995          	118.7857198 	0           	                	;				
 WW5010          	118.8193455 	0           	                	;				
 WW5024          	118.89115   	0           	                	;				
 WW5042          	118.9240364 	0           	                	;				
 WW5080          	119.1196595 	0           	                	;				
 WW5123          	119.2059277 	0           	                	;				
 WW5185          	119.367945  	0           	                	;				
 WW5192          	119.4405643 	0           	                	;				
 WW5207          	119.4642227 	0           	                	;				
 WW5217          	119.5132357 	0           	                	;				
 WW5243          	119.5817586 	0           	                	;				
 WW5278          	119.7601742 	0           	                	;				
 WW5291          	119.7656943 	0           	                	;				
 WW5296          	119.800211  	0           	                	;				
 WW5312          	119.9160326 	0           	                	;				
 WW5316          	119.9184093 	0           	                	;				
 WW5324          	119.9112414 	0           	                	;				
 WW5326          	119.9114853 	0           	                	;				
 WW5412          	120.2935157 	0           	                	;				
 WW5450          	120.5650339 	0           	                	;				
 WW5494          	120.6530668 	0           	                	;				
 WW5498          	120.6892151 	0           	                	;				
 WW5504          	120.7126273 	0           	                	;				
 WW5516          	120.7378352 	0           	                	;				
 WW5538          	120.8757599 	0           	                	;				
 WW5544          	120.9250069 	0           	                	;				
 WW5556          	121.0023657 	0           	                	;				
 WW5557          	120.9667215 	0           	                	;				
 WW5573          	121.1517606 	0           	                	;				
 WW5583          	121.1616513 	0           	                	;				
 WW5587          	121.2040479 	0           	                	;				
 WW5607          	121.308577  	0           	                	;				
 WW5620          	121.3156022 	0           	                	;				
 WW5621          	121.3471951 	0           	                	;				
 WW5624          	121.3840179 	0           	                	;				
 WW5643          	121.4333841 	0           	                	;				
 WW5687          	121.5496229 	0           	                	;				
 WW5690          	121.5806807 	0           	                	;				
 WW5705          	121.5129211 	0           	                	;				
 WW5708          	121.6033439 	0           	                	;				
 WW5717          	121.6444784 	0           	                	;				
 WW5730          	121.7067189 	0           	                	;				
 WW5736          	121.7658797 	0           	                	;				
 WW5762          	121.8088702 	0           	                	;				
 WW5776          	121.9439845 	0           	                	;				
 WW5782          	121.9674185 	0           	                	;				
 WW5789          	121.9342748 	0           	                	;				
 WW5790          	121.983182  	0           	                	;				
 WW5814          	122.0843115 	0           	                	;				
 WW5816          	122.1900197 	0           	                	;				
 WW5817          	122.0888367 	0           	                	;				
 WW5820          	122.0968994 	0           	                	;				
 WW5840          	122.2481665 	0           	                	;				
 WW5847          	122.1723537 	0           	                	;				
 WW5849          	122.2524539 	0           	                	;				
 WW5851          	122.2936847 	0           	                	;				
 WW5866          	122.3243355 	0           	                	;				
 WW5868          	122.2541894 	0           	                	;				
 WW5872          	122.3555171 	0           	                	;				
 WW5886          	122.469187  	0           	                	;				
 WW5897          	122.6242869 	0           	                	;				
 WW5898          	122.6450771 	0           	                	;				
 WW5900          	122.6676984 	0           	                	;				
 WW5902          	122.7068471 	0           	                	;				
 WW5911          	122.7980655 	0           	                	;				
 WW5912          	122.9370791 	0           	                	;				
 WW5921          	122.936979  	0           	                	;				
 WW5924          	123.0483189 	0           	                	;				
 WW5925          	122.9924597 	0           	                	;				
 WW5934          	123.1460251 	0           	                	;				
 WW5945          	123.1845821 	0           	                	;				
 WW5946          	123.1905671 	0           	                	;				
 WW5951          	123.2271092 	0           	                	;				
 WW5956          	123.2759956 	0           	                	;				
 WW5962          	123.2973626 	0           	                	;				
 WW5968          	123.3283097 	0           	                	;				
 WW598           	104.844953  	0           	                	;				
 WW5988          	123.3812269 	0           	                	;				
 WW6375          	123.484822  	0           	                	;				
 WW6419          	123.5553142 	0           	                	;				
 WW6529          	123.8797135 	0           	                	;				
 WW6556          	124.1329879 	0           	                	;				
 WW6602          	124.3548394 	0           	                	;				
 C42             	112.4339095 	1.744038559 	                	;				

[RESERVOIRS]
;ID              	Head        	Pattern         
 NR1             	169.56      	                	;					
 NR6             	169.4       	                	;					

[TANKS]
;ID              	Elevation   	InitLevel   	MinLevel    	MaxLevel    	Diameter    	MinVol      	VolCurve

[PIPES]
;ID              	Node1           	Node2           	Length      	Diameter    	Roughness   	MinorLoss   	Status
 WW3594_WW3592   	WW3594          	WW3592          	3.153219758 	450         	0.012       	0           	Open  	;
 WW5326_WW5324   	WW5326          	WW5324          	6.901723779 	450         	0.012       	0           	Open  	;
 WW5956_WW5945   	WW5956          	WW5945          	377.9491524 	450         	0.012       	0           	Open  	;
 WW2712_WW2702   	WW2712          	WW2702          	415.9255293 	450         	0.012       	0           	Open  	;
 WW5951_WW5968   	WW5951          	WW5968          	418.4695656 	450         	0.012       	0           	Open  	;
 WW4213_WW4167   	WW4213          	WW4167          	537.0739695 	450         	0.012       	0           	Open  	;
 WW2103_WW2055   	WW2103          	WW2055          	538.8714716 	450         	0.012       	0           	Open  	;
 WW5583_WW5620   	WW5583          	WW5620          	638.2421    	450         	0.012       	0           	Open  	;
 WW5312_WW5278   	WW5312          	WW5278          	862.8703964 	450         	0.012       	0           	Open  	;
 WW3671_WW3594   	WW3671          	WW3594          	875.1639825 	450         	0.012       	0           	Open  	;
 WW5736_WW5782   	WW5736          	WW5782          	903.9139406 	450         	0.012       	0           	Open  	;
 WW2906_WW2838   	WW2906          	WW2838          	1016.154092 	450         	0.012       	0           	Open  	;
 WW5817_WW5762   	WW5817          	WW5762          	1153.108197 	450         	0.012       	0           	Open  	;
 WW4042_WW4114   	WW4042          	WW4114          	1162.309543 	450         	0.012       	0           	Open  	;
 WW5776_WW5717   	WW5776          	WW5717          	1233.966121 	450         	0.012       	0           	Open  	;
 WW3904_WW3913   	WW3904          	WW3913          	1242.774299 	450         	0.012       	0           	Open  	;
 WW3913_WW3904   	WW3913          	WW3904          	1242.774553 	450         	0.012       	0           	Open  	;
 WW3629_WW3693   	WW3629          	WW3693          	1310.769976 	450         	0.012       	0           	Open  	;
 WW4860_WW4922   	WW4860          	WW4922          	1392.123484 	450         	0.012       	0           	Open  	;
 WW3842_WW3843   	WW3842          	WW3843          	1492.403164 	450         	0.012       	0           	Open  	;
 WW2634_WW2695   	WW2634          	WW2695          	1574.186801 	450         	0.012       	0           	Open  	;
 WW5968_WW5956   	WW5968          	WW5956          	1596.739357 	450         	0.012       	0           	Open  	;
 WW5289_WW5185   	WW5291          	WW5185          	1640.47     	450         	0.012       	0           	Open  	;
 WW5851_WW5776   	WW5851          	WW5776          	2006.087164 	450         	0.012       	0           	Open  	;
 WW5866_WW5849   	WW5866          	WW5849          	2059.34073  	450         	0.012       	0           	Open  	;
 WW5911_WW5868   	WW5911          	WW5868          	2244.959478 	450         	0.012       	0           	Open  	;
 WW6375_WW6529   	WW6375          	WW6529          	2360.323074 	450         	0.012       	0           	Open  	;
 WW4766_WW4669   	WW4766          	WW4669          	2540.60484  	450         	0.012       	0           	Open  	;
 WW2548_WW2489   	WW2548          	WW2489          	2835.332098 	450         	0.012       	0           	Open  	;
 WW5816_WW5912   	WW5816          	WW5912          	3079.776299 	450         	0.012       	0           	Open  	;
 WW2582_WW2574   	WW2582          	WW2574          	3114.498839 	450         	0.012       	0           	Open  	;
 WW5921_WW5820   	WW5921          	WW5820          	3458.379361 	450         	0.012       	0           	Open  	;
 WW5814_WW5925   	WW5814          	WW5925          	3743.601719 	450         	0.012       	0           	Open  	;
 NP4             	WW598           	WW1025          	5554.4      	450         	0.012       	0           	Open  	;
 NP7             	WW5817          	WW5820          	230.68      	450         	0.012       	0           	Open  	;
 NP8             	WW5820          	WW5868          	4649.18     	450         	0.012       	0           	Open  	;