[TITLE]
Richmond Skelton Water Supply System
For more information on this network, see the file Richmond_readme.text distributed 
with this network, or email Kobus van Zyl at jevz@ing.rau.ac.za or kobusvanzyl@mail.com

[JUNCTIONS]
;ID              	Elev        	Demand      	Pattern         
 4               	183         	0           	                	;
 9               	68.85       	0           	                	;
 10              	166.42      	5.68        	domestic        	;
 42              	60          	3.68        	domestic        	;
 104             	184         	0           	                	;
 164             	65          	0           	                	;
 175             	65          	0           	                	;
 186             	112.18      	0           	                	;
 197             	115         	0           	                	;
 206             	134.99      	0           	                	;
 249             	101         	11.3        	domestic        	;
 264             	184         	0           	                	;
 284             	186         	0           	                	;
 312             	242         	2.13        	domestic        	;
 320             	242         	0           	                	;
 321             	242         	0           	                	;
 325             	242         	3.71        	domestic        	;
 353             	185.78      	0           	                	;
 364             	217         	0           	                	;
 632             	69          	0           	                	;
 633             	69          	0           	                	;
 634             	139.02      	0           	                	;
 635             	139.82      	0           	                	;
 636             	139.82      	0           	                	;
 637             	140         	1           	domestic        	;
 701             	198.33      	.11         	domestic        	;
 729             	202.15      	0           	                	;
 745             	177         	1.42        	domestic        	;
 753             	177         	.1          	domestic        	;
 766             	69.7        	0           	                	;
 768             	69.59       	0           	                	;
 770             	69.39       	0           	                	;
 771             	69          	0           	                	;
 1125            	184         	0           	                	;
 1302            	216.65      	16.25       	domestic        	;
 1963            	70          	0           	                	;
 2009            	70          	0           	                	;
 1250            	186         	0           	                	;
 774             	188         	0           	                	;
 2010            	69          	0           	                	;
 777             	100         	-9.16       	                	;

[RESERVOIRS]
;ID              	Head        	Pattern         
 O               	1           	40              	;

[TANKS]
;ID              	Elevation   	InitLevel   	MinLevel    	MaxLevel    	Diameter    	MinVol      	VolCurve
 C               	258.9       	1.84        	0           	2           	6.6         	0           	                	;
 A               	184.13      	3.12        	0.00        	3.37        	23.5        	0           	                	;
 D               	241.18      	1.94        	0.00        	2.11        	11.8        	0           	                	;
 B               	216         	3.37        	0.00        	3.65        	15.4        	0           	                	;
 E               	203.01      	2.47        	0.00        	2.69        	8           	0           	                	;
 F               	235.71      	1.96        	0.00        	2.19        	3.6         	0           	                	;

[PIPES]
;ID              	Node1           	Node2           	Length      	Diameter    	Roughness   	MinorLoss   	Status
 788             	A               	4               	18          	150         	120         	0           	Open  	;
 790             	4               	10              	401         	150         	120         	0           	Open  	;
 793             	4               	104             	18          	150         	120         	0           	Open  	;
 794             	9               	42              	1087        	300         	140         	0           	Open  	;
 841             	42              	164             	3002        	250         	140         	0           	Open  	;
 911             	104             	206             	846         	152         	110         	0           	Open  	;
 912             	104             	264             	44          	100         	100         	0           	Open  	;
 993             	164             	175             	18          	250         	130         	0           	Open  	;
 1020            	186             	197             	5           	250         	140         	0           	Open  	;
 1033            	164             	197             	16          	250         	137.5       	0           	CV    	;
 1036            	197             	284             	2003        	250         	130         	0           	Open  	;
 1085            	206             	249             	30          	76          	80          	0           	Open  	;
 1107            	249             	634             	6           	100         	70          	0           	Open  	;
 1153            	284             	1250            	13          	200         	130         	0           	Open  	;
 1154            	1125            	312             	1261        	150         	100         	0           	CV    	;
 1178            	284             	774             	18          	229         	75          	0           	Open  	;
 1196            	312             	D               	15          	100         	30          	0           	CV    	;
 1208            	320             	321             	7           	80          	90          	0           	Open  	;
 1209            	320             	325             	3           	150         	100         	0           	Open  	;
 1210            	321             	312             	23          	150         	100         	0           	CV    	;
 1278            	353             	364             	472         	200         	130         	0           	Open  	;
 1301            	B               	1302            	10          	152         	70          	0           	Open  	;
 1304            	B               	364             	7           	152         	70          	0           	Open  	;
 1638            	632             	633             	5           	300         	120         	0           	Open  	;
 1645            	634             	635             	2           	100         	130         	0           	Open  	;
 1653            	636             	637             	1           	100         	120         	0           	CV    	;
 1677            	2010            	770             	5           	300         	120         	0           	CV    	;
 1740            	637             	C               	4028        	100         	130         	0           	Open  	;
 1752            	321             	701             	365         	150         	140         	0           	Open  	;
 1753            	701             	729             	5612        	152         	110         	0           	Open  	;
 1783            	729             	E               	1591        	76          	70          	0           	CV    	;
 1793            	E               	745             	444         	102         	70          	0           	CV    	;
 1832            	753             	F               	1216        	76          	87.5        	0           	Open  	;
 1842            	766             	768             	5           	300         	150         	0           	Open  	;
 1844            	768             	770             	4           	300         	150         	0           	Open  	;
 1848            	770             	771             	5           	300         	150         	0           	Open  	;
 1849            	771             	9               	26          	150         	100         	0           	Open  	;
 1879            	774             	A               	1           	150         	100         	0           	Open  	;
 1913            	O               	632             	8           	300         	120         	0           	Open  	;
 1964            	633             	1963            	4           	150         	100         	0           	Open  	;
 1978            	D               	320             	17          	150         	100         	0           	Open  	;
 2010            	632             	2009            	4           	150         	100         	0           	Open  	;
 p1              	633             	2010            	1           	300         	120         	0           	Open  	;
 p2              	777             	A               	20          	200         	100         	0           	Open  	;

[PUMPS]
;ID              	Node1           	Node2           	Parameters
 7F              	745             	753             	HEAD 1883	;
 2A              	1963            	768             	HEAD 2015	;
 5C              	635             	636             	HEAD 1884	;
 6D              	264             	1125            	HEAD 1123	;
 3A              	175             	186             	HEAD 1006	;
 4B              	1250            	353             	HEAD 1881	;
 1A              	2009            	766             	HEAD 2007	;

[VALVES]
;ID              	Node1           	Node2           	Diameter    	Type	Setting     	MinorLoss   

[TAGS]

[DEMANDS]
;Junction        	Demand      	Pattern         	Category

[STATUS]
;ID              	Status/Setting
 7F              	Closed
 2A              	Closed
 5C              	Closed
 6D              	Closed
 3A              	Closed
 4B              	Closed
 1A              	Closed

[PATTERNS]
;ID              	Multipliers
;
 Fac_11          	1           
;
 CBTariff        	2.40925     	2.40925     	2.40925     	2.40925     	2.40925     	2.40925     
 CBTariff        	2.40925     	6.7945      	6.7945      	6.7945      	6.7945      	6.7945      
 CBTariff        	6.7945      	6.7945      	6.7945      	6.7945      	6.7945      	6.7945      
 CBTariff        	6.7945      	6.7945      	6.7945      	6.7945      	6.7945      	6.7945      
;
 HHTariff        	2.46        	2.46        	2.46        	2.46        	2.46        	2.46        
 HHTariff        	2.46        	9.866       	9.866       	9.866       	9.866       	9.866       
 HHTariff        	9.866       	9.866       	9.866       	9.866       	9.866       	9.866       
 HHTariff        	9.866       	9.866       	9.866       	9.866       	9.866       	9.866       
;
 LZGTariff       	2.460       	2.460       	2.460       	2.460       	2.460       	2.460       
 LZGTariff       	2.460       	11.195      	11.195      	11.195      	11.195      	11.195      
 LZGTariff       	11.195      	11.195      	11.195      	11.195      	11.195      	11.195      
 LZGTariff       	11.195      	11.195      	11.195      	11.195      	11.195      	11.195      
;
 LZHZTariff      	2.456666667 	2.456666667 	2.456666667 	2.456666667 	2.456666667 	2.456666667 
 LZHZTariff      	2.456666667 	12.34       	12.34       	12.34       	12.34       	12.34       
 LZHZTariff      	12.34       	12.34       	12.34       	12.34       	12.34       	12.34       
 LZHZTariff      	12.34       	12.34       	12.34       	12.34       	12.34       	12.34       
;
 STariff         	2.44        	2.44        	2.44        	2.44        	2.44        	2.44        
 STariff         	2.44        	11.94       	11.94       	11.94       	11.94       	11.94       
 STariff         	11.94       	11.94       	11.94       	11.94       	11.94       	11.94       
 STariff         	11.94       	11.94       	11.94       	11.94       	11.94       	11.94       
;
 STTariff        	2.41        	2.41        	2.41        	2.41        	2.41        	2.41        
 STTariff        	2.41        	7.535       	7.535       	7.535       	7.535       	7.535       
 STTariff        	7.535       	7.535       	7.535       	7.535       	7.535       	7.535       
 STTariff        	7.535       	7.535       	7.535       	7.535       	7.535       	7.535       
;
 40              	70.33       	69.55       	69.42       	69.42       	70.33       	70.33       
 40              	70.33       	70.33       	70.33       	70.33       	70.29       	70.29       
 40              	70.33       	70.42       	70.42       	70.37       	69.64       	69.68       
 40              	69.68       	70.42       	70.37       	70.33       	70.33       	70.33       
;
 domestic        	1.10        	1.61        	1.53        	1.4         	1.15        	1.06        
 domestic        	1.04        	1           	.92         	.95         	1.16        	1.34        
 domestic        	1.45        	1.32        	1.33        	1.11        	1.07        	.71         
 domestic        	.48         	.46         	.4          	.39         	.41         	.52         

[CURVES]
;ID              	X-Value     	Y-Value
;PUMP:   
 1006            	0           	38.00       
 1006            	10          	37.00       
 1006            	20          	36.00       
 1006            	30          	34.00       
 1006            	40          	31.00       
 1006            	50          	29.00       
 1006            	60          	27.00       
 1006            	70          	25.00       
;PUMP:   
 1123            	0           	88.000      
 1123            	2.78        	87.000      
 1123            	5.56        	84.000      
 1123            	8.53        	76.000      
 1123            	11.11       	63.000      
 1123            	13.89       	47.000      
;PUMP:   
 1641            	0           	146.000     
 1641            	10          	145.000     
 1641            	15          	144.000     
 1641            	20          	143.000     
 1641            	25          	141.000     
 1641            	30          	138.000     
 1641            	35          	133.000     
 1641            	40          	127.000     
 1641            	45          	120.000     
 1641            	50          	108.000     
;PUMP:   
 1659            	0           	122.000     
 1659            	2.22        	120.000     
 1659            	2.78        	118.000     
 1659            	3.33        	115.000     
 1659            	3.89        	110.000     
 1659            	4.44        	105.000     
 1659            	5           	96.000      
 1659            	5.55        	85.000      
 1659            	6.11        	72.000      
;PUMP:   
 1691            	0           	129         
 1691            	10          	128         
 1691            	15          	127         
 1691            	20          	126         
 1691            	25          	124         
 1691            	30          	121         
 1691            	35          	116         
 1691            	40          	110         
 1691            	45          	103         
 1691            	50          	91          
;PUMP:   
 1881            	0           	40.00       
 1881            	6.94        	38.50       
 1881            	13.88       	38.00       
 1881            	20.83       	37.50       
 1881            	27.77       	36.00       
 1881            	34.72       	35.00       
 1881            	41.66       	32.50       
 1881            	48.61       	30.00       
 1881            	55.55       	27.50       
 1881            	111.5       	7.50        
;PUMP:   
 1883            	0           	37.000      
 1883            	1           	36.999      
 1883            	2           	36.998      
 1883            	3           	36.997      
 1883            	4           	36.996      
 1883            	5           	36.995      
 1883            	6           	36.994      
;PUMP:   
 1884            	0           	122.000     
 1884            	2.22        	120.000     
 1884            	2.78        	118.000     
 1884            	3.33        	115.000     
 1884            	3.89        	110.000     
 1884            	4.44        	105.000     
 1884            	5           	96.000      
 1884            	5.55        	85.000      
 1884            	6.11        	72.000      
;PUMP:   
 1948            	0           	20.00       
 1948            	0.4         	19.00       
 1948            	0.8         	16.00       
 1948            	1.2         	13.00       
 1948            	1.6         	11.00       
 1948            	2           	7.00        
;PUMP:   
 2007            	0           	129         
 2007            	10          	128         
 2007            	15          	127         
 2007            	20          	126         
 2007            	25          	124         
 2007            	30          	121         
 2007            	35          	116         
 2007            	40          	110         
 2007            	45          	103         
 2007            	50          	91          
;PUMP:   
 2015            	0           	129         
 2015            	10          	128         
 2015            	15          	127         
 2015            	20          	126         
 2015            	25          	124         
 2015            	30          	121         
 2015            	35          	116         
 2015            	40          	110         
 2015            	45          	103         
 2015            	50          	91          
;EFFICIENCY:  
 HHEfficiency    	0           	0           
 HHEfficiency    	1.1         	0           
 HHEfficiency    	1.5         	48          
 HHEfficiency    	2           	57          
 HHEfficiency    	2.5         	62          
 HHEfficiency    	3           	67          
 HHEfficiency    	3.5         	71          
 HHEfficiency    	4.5         	71          
 HHEfficiency    	5           	69          
 HHEfficiency    	5.5         	67          
 HHEfficiency    	6           	62          
;EFFICIENCY:  
 CBNEfficiency   	0           	0           
 CBNEfficiency   	20          	57          
 CBNEfficiency   	25          	65          
 CBNEfficiency   	30          	71          
 CBNEfficiency   	35          	75          
 CBNEfficiency   	40          	75          
 CBNEfficiency   	45          	75          
 CBNEfficiency   	50          	73          
;EFFICIENCY:  
 CBOEfficiency   	0           	0           
 CBOEfficiency   	20          	57          
 CBOEfficiency   	25          	65          
 CBOEfficiency   	30          	71          
 CBOEfficiency   	35          	75          
 CBOEfficiency   	40          	75          
 CBOEfficiency   	45          	72          
 CBOEfficiency   	50          	70          
;EFFICIENCY:  
 LZGEfficiency   	0           	0           
 LZGEfficiency   	2.7         	32          
 LZGEfficiency   	5.5         	50          
 LZGEfficiency   	8.3         	55          
 LZGEfficiency   	11.11       	58          
 LZGEfficiency   	13.8        	47          
;EFFICIENCY:  
 LZHZEfficiency  	0           	0           
 LZHZEfficiency  	10          	40          
 LZHZEfficiency  	20          	50          
 LZHZEfficiency  	30          	61          
 LZHZEfficiency  	40          	68          
 LZHZEfficiency  	50          	71          
 LZHZEfficiency  	60          	72          
 LZHZEfficiency  	70          	72          
 LZHZEfficiency  	80          	71          
 LZHZEfficiency  	90          	68          
 LZHZEfficiency  	100         	61          
 LZHZEfficiency  	110         	50          
 LZHZEfficiency  	120         	40          
;EFFICIENCY:  
 SEfficiency     	0           	0           
 SEfficiency     	1.38        	31          
 SEfficiency     	2.7         	48          
 SEfficiency     	4.6         	54          
 SEfficiency     	5.5         	54          
 SEfficiency     	6.94        	43          
;EFFICIENCY:  
 STEfficiency    	0           	0           
 STEfficiency    	20          	34          
 STEfficiency    	40          	58          
 STEfficiency    	60          	72          
 STEfficiency    	80          	77          

[CONTROLS]
LINK 1A 1.0000 IF NODE A BELOW 2.3685
LINK 1A 0.0000 IF NODE A ABOVE 2.9799
LINK 2A 1.0000 IF NODE A BELOW 3.0405
LINK 2A 0.0000 IF NODE A ABOVE 3.2513
LINK 3A 1.0000 IF NODE A BELOW 2.8888
LINK 3A 0.0000 IF NODE A ABOVE 3.1126
LINK 4B 1.0000 IF NODE B BELOW 3.2623
LINK 4B 0.0000 IF NODE B ABOVE 3.5789
LINK 5C 1.0000 IF NODE C BELOW 0.7185
LINK 5C 0.0000 IF NODE C ABOVE 1.8850
LINK 6D 1.0000 IF NODE D BELOW 1.5907
LINK 6D 0.0000 IF NODE D ABOVE 1.9708
LINK 7F 1.0000 IF NODE F BELOW 1.7037
LINK 7F 0.0000 IF NODE F ABOVE 2.1095


[RULES]

[ENERGY]
 Global Efficiency  	75
 Global Price       	0
 Demand Charge      	0
 Pump 	7F              	Efficiency	SEfficiency
 Pump 	7F              	Price     	1
 Pump 	7F              	Pattern   	STariff
 Pump 	2A              	Efficiency	CBNEfficiency
 Pump 	2A              	Price     	1
 Pump 	2A              	Pattern   	CBTariff
 Pump 	5C              	Efficiency	HHEfficiency
 Pump 	5C              	Price     	1
 Pump 	6D              	Efficiency	LZGEfficiency
 Pump 	6D              	Price     	1
 Pump 	6D              	Pattern   	LZGTariff
 Pump 	3A              	Efficiency	STEfficiency
 Pump 	3A              	Price     	1
 Pump 	3A              	Pattern   	STTariff
 Pump 	4B              	Efficiency	LZHZEfficiency
 Pump 	4B              	Price     	1
 Pump 	4B              	Pattern   	LZHZTariff
 Pump 	1A              	Efficiency	CBOEfficiency
 Pump 	1A              	Price     	1
 Pump 	1A              	Pattern   	CBTariff

[EMITTERS]
;Junction        	Coefficient

[QUALITY]
;Node            	InitQual

[SOURCES]
;Node            	Type        	Quality     	Pattern

[REACTIONS]
;Type     	Pipe/Tank       	Coefficient


[REACTIONS]
 Order Bulk            	1
 Order Tank            	1
 Order Wall            	1
 Global Bulk           	0
 Global Wall           	0
 Limiting Potential    	0
 Roughness Correlation 	0

[MIXING]
;Tank            	Model

[TIMES]
 Duration           	24
 Hydraulic Timestep 	1:00 
 Quality Timestep   	0:05 
 Pattern Timestep   	1:00 
 Pattern Start      	0:00 
 Report Timestep    	1:00 
 Report Start       	0:00 
 Start ClockTime    	7 am
 Statistic          	NONE

[REPORT]
 Status             	Full
 Summary            	No
 Page               	0

[OPTIONS]
 Units              	LPS
 Headloss           	H-W
 Specific Gravity   	1
 Viscosity          	1
 Trials             	40
 Accuracy           	0.001
 Unbalanced         	Stop
 Pattern            	Fac_11
 Demand Multiplier  	1.0
 Emitter Exponent   	0.5
 Quality            	None mg/L
 Diffusivity        	1
 Tolerance          	0.01

[COORDINATES]
;Node            	X-Coord         	Y-Coord
 4               	417432864.00    	501468288.00    
 9               	420073728.00    	500427808.00    
 10              	417780512.00    	500933632.00    
 42              	419679296.00    	500512320.00    
 104             	417213856.00    	501042112.00    
 164             	419059488.00    	500709536.00    
 175             	419172160.00    	501132128.00    
 186             	418524192.00    	501357504.00    
 197             	418411488.00    	500934912.00    
 206             	416484544.00    	500334944.00    
 249             	416481344.00    	500337760.00    
 264             	416903936.00    	501352000.00    
 284             	417977728.00    	502032384.00    
 312             	416653568.00    	503581920.00    
 320             	416202816.00    	504173568.00    
 321             	416202816.00    	503581920.00    
 325             	415385760.00    	504089056.00    
 353             	417977728.00    	503215680.00    
 364             	417977728.00    	503891840.00    
 632             	421818368.00    	500927904.00    
 633             	421781120.00    	500701184.00    
 634             	415495264.00    	499999680.00    
 635             	415244906.43    	499968684.80    
 636             	414794132.41    	499855991.29    
 637             	414554658.70    	499799644.54    
 701             	416202816.00    	501553440.00    
 729             	415470304.00    	501440736.00    
 745             	414315200.00    	501412576.00    
 753             	413695360.00    	501412576.00    
 766             	421085888.00    	501294144.00    
 768             	421057696.00    	500787040.00    
 770             	421001344.00    	500308064.00    
 771             	420062560.00    	500447648.00    
 1125            	416751840.00    	501745312.00    
 1302            	419048320.00    	504060864.00    
 1963            	421668448.00    	500701184.00    
 2009            	421818368.00    	501237792.00    
 1250            	417977728.00    	502539520.00    
 774             	417696000.00    	502060544.00    
 2010            	421752960.00    	500229280.00    
 777             	417139840.00    	502283968.00    
 O               	422555897.68    	500687105.90    
 C               	413382272.00    	499661600.00    
 A               	417442432.00    	502060544.00    
 D               	416625408.00    	504201728.00    
 B               	417921376.00    	504370784.00    
 E               	414935008.00    	501412576.00    
 F               	412991040.00    	501384384.00    

[VERTICES]
;Link            	X-Coord         	Y-Coord

[LABELS]
;X-Coord           Y-Coord          Label & Anchor Node

[BACKDROP]
 DIMENSIONS     	408638249.60    	499335350.40    	423020758.40    	502165641.60    
 UNITS          	None
 FILE           	
 OFFSET         	0.00            	0.00            

[END]
