[JUNCTIONS]
   1003   7097.00    4.0200         1
   1010   6965.00    4.0200         1
   1012   7060.00    4.0200         1
   1020   7130.00    4.0200         1
   1021   6965.00    4.0200         1
   1022   7030.00    4.0200         1
   1023   7125.00    4.0200         1
   1024   7025.00    4.0200         1
   1025   7005.00    4.0200         1
   1026   6965.00    4.0200         1
   1027   6980.00    4.0200         1
   1028   7020.00    4.0200         1
   1029   7005.00    4.0200         1
   1030   7020.00    4.0200         1
   1031   7020.00    4.0200         1
   1032   7000.00    4.0200         1
   1033   6990.00    4.0200         1
   1034   6977.00    4.0200         1
   1035   6965.00    4.0200         1
   1036   6996.00    4.0200         1
   1037   6985.00    4.0200         1
   1038   7040.00    4.0200         1
   1040   7080.00    4.0200         1
   1041   7020.00    4.0200         1
   1042   6995.00    4.0200         1
   1043   7040.00    4.0200         1
   1044   7030.00    4.0200         1
   1046   7010.00    4.0200         1
   1047   7005.00    4.0200         1
   1048   7010.00    4.0200         1
   1049   7025.00    4.0200         1
   1051   7110.00    4.0200         1
   1052   7120.00    4.0200         1
   1053   7100.00    4.0200         1
   1055   7077.00    4.0200         1
   1056   7050.00    4.0200         1
   1059   7030.00    4.0200         1
   1060   7050.00    4.0200         1
   1061   7010.00    4.0200         1
   1062   7050.00    4.0200         1
   1064   7045.00    4.0200         1
   1065   7070.00    4.0200         1
   1066   7082.00    4.0200         1
   1067   7125.00    4.0200         1
   1068   7130.00    4.0200         1
   1070   7095.00    4.0200         1
   1071   7120.00    4.0200         1
   1074   7050.00    4.0200         1
   1076   7060.00    4.0200         1
   1077   7100.00    4.0200         1
   1078   7075.00    4.0200         1
   1079   7126.00    4.0200         1
   1080   7115.00    4.0200         1
   1086   7135.00    4.0200         1
   1087   7125.00    4.0200         1
   1088   7125.00    4.0200         1
   1089   7162.00    4.0200         1
   1090   7157.00    4.0200         1
   1092   6980.00    4.0200         1
   1093   7149.00    4.0200         1
   1095   7139.00    4.0200         1
   1096   7129.00    4.0200         1
   1097   7003.00    4.0200         1
   1098   7037.00    4.0200         1
   1099   7100.00    4.0200         1
   1100   7170.00    4.0200         1
   1101   7105.00    4.0200         1
   1102   7063.00    4.0200         1
   1103   7030.00    4.0200         1
   1104   7175.00    4.0200         1
   1105   7055.00    4.0200         1
   1106   7000.00    4.0200         1
   1107   6998.00    4.0200         1
   1108   7000.00    4.0200         1
   1110   6985.00    4.0200         1
   1111   7030.00    4.0200         1
   1114   7060.00    4.0200         1
   1115   7050.00    4.0200         1
   1117   7050.00    4.0200         1
   1118   7040.00    4.0200         1
   1120   7020.00    4.0200         1
   1121   7037.00    4.0200         1
   1122   7040.00    4.0200         1
   1123   7035.00    4.0200         1
   1124   7030.00    4.0200         1
   1125   7035.00    4.0200         1
   1126   7055.00    4.0200         1
   1127   7065.00    4.0200         1
   1128   7040.00    4.0200         1
   1129   7050.00    4.0200         1
   1130   7050.00    4.0200         1
   1131   7057.00    4.0200         1
   1133   7077.00    4.0200         1
   1135   7015.00    4.0200         1
   1136   7055.00    4.0200         1
   1137   7065.00    4.0200         1
   1138   7082.00    4.0200         1
   1139   7020.00    4.0200         1
   1141   7112.00    4.0200         1
   1142   7065.00    4.0200         1
   1144   7040.00    4.0200         1
   1146   7040.00    4.0200         1
   1147   7153.00    4.0200         1
   1148   7070.00    4.0200         1
   1149   7100.00    4.0200         1
   1150   7140.00    4.0200         1
   1151   7148.00    4.0200         1
   1152   7140.00    4.0200         1
   1153   7150.00    4.0200         1
   1154   7151.00    4.0200         1
   1155   7122.00    4.0200         1
   1156   7140.00    4.0200         1
   1157   7107.00    4.0200         1
   1158   7118.00    4.0200         1
   1159   7130.00    4.0200         1
   1161   7120.00    4.0200         1
   1162   7113.00    4.0200         1
   1163   7108.00    4.0200         1
   1164   7096.00    4.0200         1
   1165   7099.00    4.0200         1
   1166   7070.00    4.0200         1
   1167   7076.00    4.0200         1
   1168   7070.00    4.0200         1
   1169   7080.00    4.0200         1
   1170   7162.00    4.0200         1
   1171   7090.00    4.0200         1
   1172   7100.00    4.0200         1
   1173   7070.00    4.0200         1
   1174   7110.00    4.0200         1
   1175   7130.00    4.0200         1
   1176   7098.00    4.0200         1
   1177   7088.00    4.0200         1
   1178   7096.00    4.0200         1
   1179   7045.00    4.0200         1
   6005   7194.00    8.4300         1
   6006   7155.00    8.4300         1
   6008   7175.00    8.4300         1
   6009   7145.00    8.4300         1
   6011   7090.00    8.4300         1
   6013   7150.00    8.4300         1
   6014   7030.00    8.4300         1
   6015   6985.00    8.4300         1
   6018   6985.00    8.4300         1
   6035   6961.00    8.4300         1
   6056   6998.00    8.4300         1
   6057   7010.00    8.4300         1
   6058   7012.00    8.4300         1
   6059   7017.00    8.4300         1
   6060   7030.00    8.4300         1
   6061   7029.00    8.4300         1
   6062   7030.00    8.4300         1
   6063   7020.00    8.4300         1
   6064   7020.00    8.4300         1
   6065   7047.00    8.4300         1
   6066   7047.00    8.4300         1
   6067   7052.00    8.4300         1
   6068   7050.00    8.4300         1
   6069   7050.00    8.4300         1
   6070   7064.00    8.4300         1
   6071   7074.00    8.4300         1
   6072   7085.00    8.4300         1
   6073   7100.00    8.4300         1
   6074   7103.00    8.4300         1
   6075   7132.00    8.4300         1
   6076   7140.00    8.4300         1
   6077   7169.00    8.4300         1
   6083   7001.00    8.4300         1
   6084   7000.00    8.4300         1
   6085   7000.00    8.4300         1
   6086   7004.00    8.4300         1
   6087   7004.00    8.4300         1
   6088   7019.00    8.4300         1
   6089   7019.00    8.4300         1
   6090   7000.00    8.4300         1
   6091   7006.00    8.4300         1
   6092   7025.00    8.4300         1
   6093   7025.00    8.4300         1
   6094   7046.00    8.4300         1
   6095   7046.00    8.4300         1
   6096   7047.00    8.4300         1
   6097   7034.00    8.4300         1
   6098   7040.00    8.4300         1
   6099   7055.00    8.4300         1
   6100   7020.00    8.4300         1
   6101   7008.00    8.4300         1
   6102   7008.00    8.4300         1
   6103   7020.00    8.4300         1
   6104   7038.00    8.4300         1
   6105   7032.00    8.4300         1
   6106   7023.00    8.4300         1
   6107   7018.00    8.4300         1
   6108   7020.00    8.4300         1
   6109   7030.00    8.4300         1
   6110   7040.00    8.4300         1
   6111   7030.00    8.4300         1
   6112   7005.00    8.4300         1
   6113   7013.00    8.4300         1
   6114   7090.00    8.4300         1
   6115   7075.00    8.4300         1
   6116   7060.00    8.4300         1
   6117   7059.00    8.4300         1
   6118   7051.00    8.4300         1
   6119   7061.00    8.4300         1
   6120   7067.00    8.4300         1
   6121   7074.00    8.4300         1
   6122   7050.00    8.4300         1
   6123   7060.00    8.4300         1
   6124   7060.00    8.4300         1
   6125   7070.00    8.4300         1
   6126   7074.00    8.4300         1
   6127   7125.00    8.4300         1
   6128   7087.00    8.4300         1
   6129   7094.00    8.4300         1
   6130   7087.00    8.4300         1
   6131   7102.00    8.4300         1
   6132   7112.00    8.4300         1
   6133   7112.00    8.4300         1
   6134   7100.00    8.4300         1
   6135   7110.00    8.4300         1
   6136   7110.00    8.4300         1
   6137   7087.00    8.4300         1
   6138   7060.00    8.4300         1
   6139   7060.00    8.4300         1
   6140   7070.00    8.4300         1
   6141   7070.00    8.4300         1
   6142   7115.00    8.4300         1
   6143   7100.00    8.4300         1
   6144   7129.00    8.4300         1
   6145   7100.00    8.4300         1
   6146   7121.00    8.4300         1
   6147   7100.00    8.4300         1
   6148   7141.00    8.4300         1
   6149   7141.00    8.4300         1
   6150   7130.00    8.4300         1
   6151   7151.00    8.4300         1
   6152   7153.00    8.4300         1
   6153   7150.00    8.4300         1
   6154   7160.00    8.4300         1
   6156   7190.00    8.4300         1
   6157   7180.00    8.4300         1
   6158   7174.00    8.4300         1
   6159   7183.00    8.4300         1
   6160   7168.00    8.4300         1
   6161   7161.00    8.4300         1
   6178   7191.00    8.4300         1
   6179   7185.00    8.4300         1
   6199   7125.00    8.4300         1
   6200   7111.00    8.4300         1
   6201   7101.00    8.4300         1
   6202   7070.00    8.4300         1
   6203   7100.00    8.4300         1
   6204   7093.00    8.4300         1
   6205   7082.00    8.4300         1
   6206   7101.00    8.4300         1
   6207   7129.00    8.4300         1
   6208   7117.00    8.4300         1
   6209   7116.00    8.4300         1
   6210   7109.00    8.4300         1
   6211   7116.00    8.4300         1
   6212   7122.00    8.4300         1
   6213   7126.00    8.4300         1
   6214   7127.00    8.4300         1
   6215   7130.00    8.4300         1
   6216   7141.00    8.4300         1
   6217   7138.00    8.4300         1
   6218   7036.00    8.4300         1
   6219   7021.00    8.4300         1
   6220   7012.00    8.4300         1
   6221   7039.00    8.4300         1
   6222   7040.00    8.4300         1
   6223   7060.00    8.4300         1
   6224   7055.00    8.4300         1
   6225   7076.00    8.4300         1
   6226   7070.00    8.4300         1
   6227   7138.00    8.4300         1
   6228   7142.00    8.4300         1
   6229   7106.00    8.4300         1
   6230   7148.00    8.4300         1
   6231   7139.00    8.4300         1
   6232   7133.00    8.4300         1
   6233   7148.00    8.4300         1
   6234   7137.00    8.4300         1
   6235   7133.00    8.4300         1
   6236   7142.00    8.4300         1
   6237   7150.00    8.4300         1
   6238   7090.00    8.4300         1
   6239   7090.00    8.4300         1
   6240   7125.00    8.4300         1
   6241   7055.00    8.4300         1
   6242   7080.00    8.4300         1
   6243   7080.00    8.4300         1
   6244   7087.00    8.4300         1
   6245   7071.00    8.4300         1
   6246   7050.00    8.4300         1
   6247   7086.00    8.4300         1
   6248   7043.00    8.4300         1
   6249   7085.00    8.4300         1
   6250   7039.00    8.4300         1
   6251   7012.00    8.4300         1
   6252   7048.00    8.4300         1
   6253   7012.00    8.4300         1
   6255   6976.00    8.4300         1
   6256   6994.00    8.4300         1
   6257   7012.00    8.4300         1
   6258   6985.00    8.4300         1
   6259   6985.00    8.4300         1
   6260   6990.00    8.4300         1
   6261   6990.00    8.4300         1
   6262   6985.00    8.4300         1
   6263   7100.00    8.4300         1
   6264   7142.00    8.4300         1
   9001   7100.00
   9002   7100.00
   9003   7100.00
   9004   7100.00
   9005   7100.00
   9006   7100.00
   9017   7100.00
   9018   7100.00
   9019   7100.00
   9020   7100.00
   9021   7100.00
   9022   7100.00
  11004   7142.00    4.0200         1
  11005   7151.00    4.0200         1
  11006   7140.00    4.0200         1
  11007   7157.00    4.0200         1
  11009   7086.00    4.0200         1
  11011   7149.00    4.0100         1
  11013   7150.00    4.0100         1
  11017   7143.00    4.0200         1
  11018   7146.00    4.0200         1
  11019   6965.00    4.0200         1
  11021   6955.00    4.0200         1
  11023   6965.00    4.0200         1
  11024   7005.00    4.0200         1
  11029   6980.00    4.0200         1
  11030   6965.00    4.0200         1
  11031   6965.00    4.0200         1
  11032   6995.00    4.0200         1
  11033   6990.00    4.0200         1
  11034   6990.00    4.0200         1
  11035   6985.00    4.0200         1
  11037   6995.00    4.0200         1
  11038   7015.00    4.0200         1
  11039   7005.00    4.0200         1
  11043   7080.00    4.0200         1
  11046   7055.00    4.0200         1
  11047   7040.00    4.0200         1
  11049   6985.00    4.0200         1
  11052   7000.00    4.0200         1
  11055   7015.00    4.0200         1
  11057   7030.00    4.0200         1
  11060   7005.00    4.0200         1
  11062   7008.00    4.0200         1
  11063   7025.00    4.0200         1
  11064   7030.00    4.0200         1
  11065   7040.00    4.0200         1
  11067   7040.00    4.0200         1
  11070   7080.00    4.0200         1
  11076   7110.00    4.0200         1
  11077   7110.00    4.0200         1
  11078   7120.00    4.0200         1
  11080   7070.00    4.0200         1
  11081   7045.00    4.0200         1
  11084   7040.00    4.0200         1
  11085   7077.00    4.0200         1
  11087   7030.00    4.0200         1
  11089   7075.00    4.0200         1
  11092   7080.00    4.0200         1
  11097   7130.00    4.0200         1
  11099   7085.00    4.0200         1
  11107   7065.00    4.0200         1
  11108   7050.00    4.0200         1
  11109   7075.00    4.0200         1
  11114   7115.00    4.0200         1
  11115   7123.00    4.0200         1
  11116   7101.00    4.0200         1
  11119   6985.00    4.0200         1
  11123   6978.00    4.0200         1
  11127   7024.00    4.0200         1
  11128   7028.00    4.0200         1
  11130   7020.00    4.0200         1
  11131   7006.00    4.0200         1
  11132   7037.00    4.0200         1
  11133   7017.00    4.0200         1
  11134   6992.00    4.0200         1
  11135   7040.00    4.0200         1
  11136   7056.00    4.0200         1
  11137   7060.00    4.0200         1
  11138   7032.00    4.0200         1
  11139   7057.00    4.0200         1
  11140   7051.00    4.0200         1
  11141   7053.00    4.0200         1
  11142   7042.00    4.0200         1
  11143   7045.00    4.0200         1
  11144   7075.00    4.0200         1
  11145   7064.00    4.0200         1
  11146   7139.00    4.0200         1
  11147   7074.00    4.0200         1
  11148   7114.00    4.0200         1
  11150   7038.00    4.0200         1
  11151   7040.00    4.0200         1
  11152   7102.00    4.0200         1
  11153   7147.50
  11164   7040.00    4.0200         1
  11165   7003.00    4.0200         1
  11169   7207.00    4.0200         1
  11170   7169.00    4.0200         1
  11171   7195.00    4.0200         1
  11172   7010.00    4.0200         1
  11173   7045.00    4.0200         1
  11174   7168.00    4.0200         1
  11175   7061.00    4.0200         1
  11176   7195.00    4.0200         1
  11177   7027.00    4.0200         1
  11178   7051.00    4.0200         1
  11179   7022.00    4.0200         1
  11180   7015.00    4.0200         1
  11181   7187.00    4.0200         1
  11182   7018.00    4.0200         1
  11184   7197.00    4.0200         1
  11185   7049.00    4.0200         1
  11186   7066.00    4.0200         1
  11187   7174.00    4.0200         1
  11188   7174.00    4.0200         1
  11189   7170.00    4.0200         1
  11190   7186.00    4.0200         1
  11191   7180.00    4.0200         1
  11192   7020.00    4.0200         1
  11193   7043.00    4.0200         1
  11194   7114.00    4.0200         1
  11195   7126.00
  11196   7065.00    4.0200         1
  11197   7173.00    4.0200         1
  11199   7039.00    4.0200         1
  11200   7169.00    4.0200         1
  11201   7133.00    4.0200         1
  11202   7058.00    4.0200         1
  11206   7067.00    4.0200         1
  11207   7030.00    4.0200         1
  11208   7186.00    4.0200         1
  11209   7179.00    4.0200         1
  11210   6998.00    4.0200         1
  11211   7013.00    4.0200         1
  11212   6999.00    4.0200         1
  11214   7009.00    4.0200         1
  11215   7030.00    4.0200         1
  11216   7023.00    4.0200         1
  11217   7030.00    4.0200         1
  11219   7034.00    4.0200         1
  11220   7045.00    4.0200         1
  11221   7049.00    4.0200         1
  11222   7035.00    4.0200         1
  12001   6967.00
  12002   6957.00
  12005   6967.00
  12010   6982.00
  12011   6997.00
  12012   6995.00    4.0200         1
  12013   6967.00
  12015   7007.00
  12017   7022.00
  12018   7007.00
  12019   7017.00
  12020   6992.00
  12021   6987.00
  12023   6997.00
  12025   6997.00
  12029   7062.00
  12030   7042.00
  12031   7032.00
  12032   6987.00
  12033   7022.00
  12038   7002.00
  12041   7017.00
  12043   7045.00    4.0200         1
  12044   7032.00
  12046   7027.00
  12047   7032.00
  12048   7032.00
  12049   7042.00
  12050   7042.00
  12051   7030.00    4.0200         1
  12052   7042.00
  12053   7057.00
  12055   7082.00
  12057   7082.00
  12061   7102.00
  12062   7112.00
  12064   7077.00
  12070   7112.00
  12071   7079.00
  12072   7072.00
  12075   7045.00    4.0200         1
  12078   7047.00
  12079   7047.00
  12080   7042.00
  12082   7032.00
  12084   7055.00
  12085   7047.00
  12088   7025.00
  12090   7022.00
  12092   7007.00
  12094   7010.00
  12095   7052.00
  12096   7062.00
  12107   7012.00
  12108   7047.00
  12112   7166.00    4.0200         1
  12114   7076.00    4.0200         1
  12115   7088.00    4.0200         1
  12117   7068.00
  12118   7051.00
  12119   7042.00
  12126   7005.00
  12129   7102.00
  12131   7077.00
  12133   7067.00
  12134   7082.00
  12139   7112.00
  12140   7122.00
  12141   7097.00
  12142   7122.00
  12147   7110.00    4.0200         1
  12152   7127.00
  12153   7132.00
  12154   7125.00    4.0200         1
  12157   7137.00
  12159   7127.00
  12160   7087.00
  12173   7027.00
  12174   7025.00    4.0200         1
  12175   7117.00
  12176   7024.00
  12177   7114.50
  12178   7116.50
  12179   7067.00
  12180   7124.00    4.0200         1
  12181   7053.00
  12182   7045.00
  12183   7022.00
  12184   7020.00
  12186   7029.00
  12187   7017.00
  12191   7032.00
  12192   7141.50
  12193   7044.00
  12196   7041.00
  12198   7069.00    4.0200         1
  12199   7071.00
  12202   7060.00
  12203   7135.00
  12204   7069.50
  12205   7078.50
  12206   7092.50
  12207   7090.00    4.0200         1
  12208   7085.00    4.0200         1
  12209   7099.00    4.0200         1
  12210   7087.50
  12211   7101.50
  12212   7090.50
  12213   7098.00    4.0200         1
  12214   7100.50
  12215   7098.50
  12216   7108.00    4.0200         1
  12217   7110.50
  12218   7090.00    4.0200         1
  12219   7092.50
  12220   7110.00    4.0200         1
  12221   7112.50
  12222   7120.00
  12223   7109.00
  12224   7093.00    4.0200         1
  12225   7095.50
  12226   7103.50
  12227   7125.50
  12228   7127.00    4.0200         1
  12229   7129.50
  12230   7124.50
  12231   7132.00
  12232   7141.00
  12233   7153.40
  12234   7151.00    0.0100         2
  12236   7148.60
  12237   7155.30
  12238   7163.30    0.0100         3
  12239   7153.00
  12240   7142.50
  12243   7060.00    4.0200         1
  12250   7152.30    0.0100         4
  12257   7148.50
  12258   7145.50
  12259   7122.00
  12260   7115.50
  12261   7102.00    4.0200         1
  12262   7104.50
  12263   7133.50
  12264   7134.00    4.0200         1
  12265   7136.50
  12266   7145.00    4.0200         1
  12267   7147.00
  12268   7130.50
  12269   7127.00    4.0200         1
  12270   7127.50
  12271   7119.00    4.0200         1
  12272   7121.50
  12273   7115.50
  12274   7120.00    4.0200         1
  12275   7129.50
  12276   7150.50
  12277   7138.50
  12278   7072.50
  12279   7082.50
  12280   7082.00    4.0200         1
  12281   7084.00
  12282   7106.00    4.0200         1
  12283   7108.50
  12284   7117.00    4.0200         1
  12285   7119.00
  12286   7128.00    4.0200         1
  12287   7125.00
  12288   7120.00    4.0200         1
  12289   7122.50
  12290   7046.00    4.0200         1
  12291   7048.50
  12292   7080.00    4.0200         1
  12293   7075.00    4.0200         1
  12294   7077.00
  12295   7082.50
  12296   7084.50
  12297   7112.00
  12298   7107.50
  12299   7074.00    4.0200         1
  12300   7064.00    4.0200         1
  12301   7069.00    4.0200         1
  12302   7071.50
  12303   7113.00    4.0200         1
  12304   7084.00    4.0200         1
  12305   7085.00    4.0200         1
  12306   7097.00    4.0200         1
  12307   7099.50
  12308   7085.00    4.0200         1
  12309   7084.00    4.0200         1
  12310   7096.50
  12311   7103.00    4.0200         1
  12312   7105.50
  12313   7093.00
  12314   7090.00    4.0200         1
  12316   7073.00
  12317   7076.00    4.0200         1
  12318   7078.00
  12319   7064.00    4.0200         1
  12320   7066.50
  12321   7061.00    4.0200         1
  12322   7063.00
  12323   7055.00    4.0200         1
  12324   7057.50
  12325   7055.50
  12326   7091.00    4.0200         1
  12327   7047.00
  12328   7066.50
  12329   7076.00
  12330   7116.00
  12331   7055.00    4.0200         1
  12332   7040.00
  12333   7042.00
  12334   7045.00    4.0200         1
  12335   7094.00    4.0200         1
  12336   7072.00    4.0200         1
  12337   7058.00    4.0200         1
  12338   7057.00    4.0200         1
  12339   7059.50
  12340   7068.00    4.0200         1
  12341   7070.00
  12342   7077.00    4.0200         1
  12343   7064.00    4.0200         1
  12344   7071.00    4.0200         1
  12345   7073.50
  12346   7066.00
  12347   7086.00
  12348   7087.50
  12349   7066.50
  12350   7063.00    4.0200         1
  12351   7065.00
  12352   7050.00    4.0200         1
  12353   7052.50
  12354   7071.00    4.0200         1
  12355   7074.00    4.0200         1
  12356   7073.50
  12357   7076.50
  12358   7050.00    4.0200         1
  12359   7049.00    4.0200         1
  12360   7055.00    4.0200         1
  12361   7057.50
  12362   7038.00    4.0200         1
  12363   7040.50
  12364   7051.50
  12365   7047.50
  12367   7077.50
  12368   7090.00    4.0200         1
  12369   7060.50
  12370   7065.62    4.0200         1
  12371   7053.00    4.0200         1
  12372   7055.50
  12373   7033.50
  12374   7037.50
  12375   7043.00    4.0200         1
  12376   7037.00    4.0200         1
  12377   7045.50
  12378   7047.00    4.0200         1
  12379   7049.50
  12380   7039.50
  12381   7062.50
  12382   7044.00    4.0200         1
  12383   7046.50
  12384   7058.50
  12385   7050.00    4.0200         1
  12386   7052.50
  12387   7042.00
  12388   7053.50
  12389   7059.00
  12390   7034.00
  12392   7030.00
  12393   7022.00
  12394   7006.00    4.0200         1
  12395   7026.50
  12396   7036.50
  12397   7030.00    4.0200         1
  12398   7032.50
  12399   7025.00
  12400   7032.00
  12401   7032.00
  12402   7040.00    4.0200         1
  12403   7042.00
  12404   7042.00    4.0200         1
  12405   7047.00    4.0200         1
  12406   7045.00
  12408   7031.00    4.0200         1
  12409   7113.00    4.0200         1
  12411   7047.50
  12412   7032.00    4.0200         1
  12413   7034.50
  12414   7024.00    4.0200         1
  12415   7020.00    4.0200         1
  12416   7039.50
  12417   7008.00
  12418   6994.00
  12419   6987.00
  12420   7017.00
  12421   7014.00
  12422   7008.00
  12423   7015.00    4.0200         1
  12425   7000.00
  12426   7012.00
  12427   7006.00    4.0200         1
  12435   6980.00
  12539   7030.00    4.0200         1
  12547   7023.00    4.0200         1
  12548   7053.00    4.0200         1
  12549   7045.00    4.0200         1
  12550   7045.00    4.0200         1
  12551   7040.00    4.0200         1
  12552   7030.00    4.0200         1
  12553   7020.00    4.0200         1
  12558   7147.00    4.0200         1
  12559   7161.00    4.0100         1
  12571   7125.00    4.0200         1
  12572   7123.00    4.0200         1
  12573   7131.00    4.0200         1
  12574   7136.00    4.0200         1
  12575   7127.00    4.0200         1
  12576   7113.00    4.0200         1
  12578   7071.00    4.0200         1
  12579   6987.00    4.0200         1
  12580   6989.00    4.0200         1
  12581   6987.00    4.0200         1
  12582   7000.00    4.0200         1
  12583   7000.00    4.0200         1
  12585   7013.00    4.0200         1
  12586   7000.00    4.0200         1
  12629   7015.00    4.0200         1
  12630   7031.00    4.0200         1
  12631   7033.00    4.0200         1
  12659   6998.00    4.0200         1
  12660   7000.00    4.0200         1
  12661   6995.00    4.0200         1
  12662   6997.00    4.0200         1
  12748   6994.00    4.0200         1
  12749   6996.00    4.0200         1
  12750   6998.00    4.0200         1
  12751   7000.00    4.0200         1
  12752   7010.00    4.0200         1
  12753   7012.00    4.0200         1
  12754   7005.00    4.0200         1
  12755   7007.00    4.0200         1
  12756   7027.00    4.0200         1
  12757   7029.00    4.0200         1
  12758   7013.00    4.0200         1
  12759   6999.00    4.0200         1
  12760   7001.00    4.0200         1
  12761   7013.00    4.0200         1
  12762   7013.00    4.0200         1
  12763   7015.00    4.0200         1
  12764   7022.00    4.0200         1
  12765   7024.00    4.0200         1
  12766   7005.00    4.0200         1
  12767   7005.00    4.0200         1
  12768   7007.00    4.0200         1
  12769   7022.00    4.0200         1
  12770   7024.00    4.0200         1
  12771   7004.00    4.0200         1
  12772   7004.00    4.0200         1
  12773   7005.00    4.0200         1
  12774   7007.00    4.0200         1
  12775   7006.00    4.0200         1
  12776   7012.00    4.0200         1
  12777   7014.00    4.0200         1
  12778   7013.00    4.0200         1
  12779   7015.00    4.0200         1
  12780   7009.00    4.0200         1
  12781   7011.00    4.0200         1
  12782   7020.00    4.0200         1
  12783   7022.00    4.0200         1
  12784   7007.00    4.0200         1
  12785   7007.00    4.0200         1
  12786   7009.00    4.0200         1
  12787   7029.00    4.0200         1
  12788   7031.00    4.0200         1
  12789   7012.00    4.0200         1
  12790   7012.00    4.0200         1
  12791   7014.00    4.0200         1
  12792   7005.00    4.0200         1
  12793   7007.00    4.0200         1
  12794   7025.00    4.0200         1
  12795   7027.00    4.0200         1
  12796   7011.00    4.0200         1
  12797   7011.00    4.0200         1
  12798   7013.00    4.0200         1
  12799   7020.00    4.0200         1
  12800   7022.00    4.0200         1
  12801   7060.00    4.0200         1
  12804   7040.00    4.0200         1
  12805   7042.00
  12810   6982.00    4.0200         1
  12811   6958.00    4.0200         1
  12812   6969.00    4.0200         1
  12813   6973.00    4.0200         1
  12814   6958.00    4.0200         1
  12815   6960.50    4.0200         1
  12816   6948.00    4.0200         1
  12817   6950.70    4.0200         1
  12818   6936.00    4.0200         1
  12819   6938.80    4.0200         1
  12820   6931.00    4.0200         1
  12821   6933.00    4.0200         1
  12822   6945.00    4.0200         1
  12823   6947.00    4.0200         1
  12824   6959.00    4.0200         1
  12825   6961.20    4.0200         1
  12826   6973.00 1311.0000         1
  12827   7138.00    4.0200         1
  12828   7140.00
  12831   7082.00    4.0200         1
  12832   7056.80    4.0200         1
  12833   7058.80
  12834   6960.00    4.0200         1
  12835   6962.00
  12836   6970.00    4.0200         1
  12837   6972.00
  12838   6990.00    4.0200         1
  12839   6992.00
  12840   7050.00    4.0200         1
  12841   7052.00
  12842   7070.00    4.0200         1
  12843   7072.00
  12844   7057.00    4.0200         1
  12845   7059.00
  12846   7131.50
  12847   7048.00    4.0200         1
  12848   7050.00
  12849   7035.00    4.0200         1
  12850   7037.00
  12851   6995.00    4.0200         1
  12852   6997.00
  12853   7110.00    4.0200         1
  12854   7112.00
  12855   7175.00    4.0200         1
  12856   7122.00    4.0200         1
  12857   7124.00
  12858   7105.00    4.0200         1
  12859   7107.00
  12860   7085.00    4.0200         1
  12861   7087.00
  12862   7105.00    4.0200         1
  12863   7107.00
  12864   7050.00    4.0200         1
  12865   7052.00
  12866   7140.00    4.0200         1
  12867   7125.00    4.0200         1
  12868   7025.00    4.0200         1
  12869   7027.00
  12870   7043.00    4.0200         1
  12871   7045.00
  12872   7038.00    4.0200         1
  12873   7040.00
  12874   6965.00    4.0200         1
  12875   6967.00
  12876   6985.00    4.0200         1
  12877   6990.00    4.0200         1
  12878   6987.00
  12879   6992.00
  12880   6990.00    4.0200         1
  12881   6992.00
  12882   6990.00    4.0200         1
  12883   6992.00
  12884   7025.00    4.0200         1
  12885   7027.00
  12886   7020.00    4.0200         1
  12887   7022.00
  12888   7008.00    4.0200         1
  12889   7008.00    4.0200         1