[JUNCTIONS]
   1003      7097.0      4.022          1
   1010      6965.0      4.022          1
   1012      7060.0      4.022          1
   1020      7130.0      4.022          1
   1021      6965.0      4.022          1
   1022      7030.0      4.022          1
   1023      7125.0      4.022          1
   1024      7025.0      4.022          1
   1025      7005.0      4.022          1
   1026      6965.0      4.022          1
   1027      6980.0      4.022          1
   1028      7020.0      4.022          1
   1029      7005.0      4.022          1
   1030      7020.0      4.022          1
   1031      7020.0      4.022          1
   1032      7000.0      4.022          1
   1033      6990.0      4.022          1
   1034      6977.0      4.022          1
   1035      6965.0      4.022          1
   1036      6996.0      4.022          1
   1037      6985.0      4.022          1
   1038      7040.0      4.022          1
   1040      7080.0      4.022          1
   1041      7020.0      4.022          1
   1042      6995.0      4.022          1
   1043      7040.0      4.022          1
   1044      7030.0      4.022          1
   1046      7010.0      4.022          1
   1047      7005.0      4.022          1
   1048      7010.0      4.022          1
   1049      7025.0      4.022          1
   1051      7110.0      4.022          1
   1052      7120.0      4.022          1
   1053      7100.0      4.022          1
   1055      7077.0      4.022          1
   1056      7050.0      4.022          1
   1059      7030.0      4.022          1
   1060      7050.0      4.022          1
   1061      7010.0      4.022          1
   1062      7050.0      4.022          1
   1064      7045.0      4.022          1
   1065      7070.0      4.022          1
   1066      7082.0      4.022          1
   1067      7125.0      4.022          1
   1068      7130.0      4.022          1
   1070      7095.0      4.022          1
   1071      7120.0      4.022          1
   1074      7050.0      4.022          1
   1076      7060.0      4.022          1
   1077      7100.0      4.022          1
   1078      7075.0      4.022          1
   1079      7126.0      4.022          1
   1080      7115.0      4.022          1
   1086      7135.0      4.022          1
   1087      7125.0      4.022          1
   1088      7125.0      4.022          1
   1089      7162.0      4.022          1
   1090      7157.0      4.022          1
   1092      6980.0      4.022          1
   1093      7149.0      4.022          1
   1095      7139.0      4.022          1
   1096      7129.0      4.022          1
   1097      7003.0      4.022          1
   1098      7037.0      4.022          1
   1099      7100.0      4.022          1
   1100      7170.0      4.022          1
   1101      7105.0      4.022          1
   1102      7063.0      4.022          1
   1103      7030.0      4.022          1
   1104      7175.0      4.022          1
   1105      7055.0      4.022          1
   1106      7000.0      4.022          1
   1107      6998.0      4.022          1
   1108      7000.0      4.022          1
   1110      6985.0      4.022          1
   1111      7030.0      4.022          1
   1114      7060.0      4.022          1
   1115      7050.0      4.022          1
   1117      7050.0      4.022          1
   1118      7040.0      4.022          1
   1120      7020.0      4.022          1
   1121      7037.0      4.022          1
   1122      7040.0      4.022          1
   1123      7035.0      4.022          1
   1124      7030.0      4.022          1
   1125      7035.0      4.022          1
   1126      7055.0      4.022          1
   1127      7065.0      4.022          1
   1128      7040.0      4.022          1
   1129      7050.0      4.022          1
   1130      7050.0      4.022          1
   1131      7057.0      4.022          1
   1133      7077.0      4.022          1
   1135      7015.0      4.022          1
   1136      7055.0      4.022          1
   1137      7065.0      4.022          1
   1138      7082.0      4.022          1
   1139      7020.0      4.022          1
   1141      7112.0      4.022          1
   1142      7065.0      4.022          1
   1144      7040.0      4.022          1
   1146      7040.0      4.022          1
   1147      7153.0      4.022          1
   1148      7070.0      4.022          1
   1149      7100.0      4.022          1
   1150      7140.0      4.022          1
   1151      7148.0      4.022          1
   1152      7140.0      4.022          1
   1153      7150.0      4.022          1
   1154      7151.0      4.022          1
   1155      7122.0      4.022          1
   1156      7140.0      4.022          1
   1157      7107.0      4.022          1
   1158      7118.0      4.022          1
   1159      7130.0      4.022          1
   1161      7120.0      4.022          1
   1162      7113.0      4.022          1
   1163      7108.0      4.022          1
   1164      7096.0      4.022          1
   1165      7099.0      4.022          1
   1166      7070.0      4.022          1
   1167      7076.0      4.022          1
   1168      7070.0      4.022          1
   1169      7080.0      4.022          1
   1170      7162.0      4.022          1
   1171      7090.0      4.022          1
   1172      7100.0      4.022          1
   1173      7070.0      4.022          1
   1174      7110.0      4.022          1
   1175      7130.0      4.022          1
   1176      7098.0      4.022          1
   1177      7088.0      4.022          1
   1178      7096.0      4.022          1
   1179      7045.0      4.022          1
   6005      7194.0      8.434          1
   6006      7155.0      8.434          1
   6008      7175.0      8.434          1
   6009      7145.0      8.434          1
   6011      7090.0      8.434          1
   6013      7150.0      8.434          1
   6014      7030.0      8.434          1
   6015      6985.0      8.434          1
   6018      6985.0      8.434          1
   6035      6961.0      8.434          1
   6056      6998.0      8.434          1
   6057      7010.0      8.434          1
   6058      7012.0      8.434          1
   6059      7017.0      8.434          1
   6060      7030.0      8.434          1
   6061      7029.0      8.434          1
   6062      7030.0      8.434          1
   6063      7020.0      8.434          1
   6064      7020.0      8.434          1
   6065      7047.0      8.434          1
   6066      7047.0      8.434          1
   6067      7052.0      8.434          1
   6068      7050.0      8.434          1
   6069      7050.0      8.434          1
   6070      7064.0      8.434          1
   6071      7074.0      8.434          1
   6072      7085.0      8.434          1
   6073      7100.0      8.434          1
   6074      7103.0      8.434          1
   6075      7132.0      8.434          1
   6076      7140.0      8.434          1
   6077      7169.0      8.434          1
   6083      7001.0      8.434          1
   6084      7000.0      8.434          1
   6085      7000.0      8.434          1
   6086      7004.0      8.434          1
   6087      7004.0      8.434          1
   6088      7019.0      8.434          1
   6089      7019.0      8.434          1
   6090      7000.0      8.434          1
   6091      7006.0      8.434          1
   6092      7025.0      8.434          1
   6093      7025.0      8.434          1
   6094      7046.0      8.434          1
   6095      7046.0      8.434          1
   6096      7047.0      8.434          1
   6097      7034.0      8.434          1
   6098      7040.0      8.434          1
   6099      7055.0      8.434          1
   6100      7020.0      8.434          1
   6101      7008.0      8.434          1
   6102      7008.0      8.434          1
   6103      7020.0      8.434          1
   6104      7038.0      8.434          1
   6105      7032.0      8.434          1
   6106      7023.0      8.434          1
   6107      7018.0      8.434          1
   6108      7020.0      8.434          1
   6109      7030.0      8.434          1
   6110      7040.0      8.434          1
   6111      7030.0      8.434          1
   6112      7005.0      8.434          1
   6113      7013.0      8.434          1
   6114      7090.0      8.434          1
   6115      7075.0      8.434          1
   6116      7060.0      8.434          1
   6117      7059.0      8.434          1
   6118      7051.0      8.434          1
   6119      7061.0      8.434          1
   6120      7067.0      8.434          1
   6121      7074.0      8.434          1
   6122      7050.0      8.434          1
   6123      7060.0      8.434          1
   6124      7060.0      8.434          1
   6125      7070.0      8.434          1
   6126      7074.0      8.434          1
   6127      7125.0      8.434          1
   6128      7087.0      8.434          1
   6129      7094.0      8.434          1
   6130      7087.0      8.434          1
   6131      7102.0      8.434          1
   6132      7112.0      8.434          1
   6133      7112.0      8.434          1
   6134      7100.0      8.434          1
   6135      7110.0      8.434          1
   6136      7110.0      8.434          1
   6137      7087.0      8.434          1
   6138      7060.0      8.434          1
   6139      7060.0      8.434          1
   6140      7070.0      8.434          1
   6141      7070.0      8.434          1
   6142      7115.0      8.434          1
   6143      7100.0      8.434          1
   6144      7129.0      8.434          1
   6145      7100.0      8.434          1
   6146      7121.0      8.434          1
   6147      7100.0      8.434          1
   6148      7141.0      8.434          1
   6149      7141.0      8.434          1
   6150      7130.0      8.434          1
   6151      7151.0      8.434          1
   6152      7153.0      8.434          1
   6153      7150.0      8.434          1
   6154      7160.0      8.434          1
   6156      7190.0      8.434          1
   6157      7180.0      8.434          1
   6158      7174.0      8.434          1
   6159      7183.0      8.434          1
   6160      7168.0      8.434          1
   6161      7161.0      8.434          1
   6178      7191.0      8.434          1
   6179      7185.0      8.434          1
   6199      7125.0      8.434          1
   6200      7111.0      8.434          1
   6201      7101.0      8.434          1
   6202      7070.0      8.434          1
   6203      7100.0      8.434          1
   6204      7093.0      8.434          1
   6205      7082.0      8.434          1
   6206      7101.0      8.434          1
   6207      7129.0      8.434          1
   6208      7117.0      8.434          1
   6209      7116.0      8.434          1
   6210      7109.0      8.434          1
   6211      7116.0      8.434          1
   6212      7122.0      8.434          1
   6213      7126.0      8.434          1
   6214      7127.0      8.434          1
   6215      7130.0      8.434          1
   6216      7141.0      8.434          1
   6217      7138.0      8.434          1
   6218      7036.0      8.434          1
   6219      7021.0      8.434          1
   6220      7012.0      8.434          1
   6221      7039.0      8.434          1
   6222      7040.0      8.434          1
   6223      7060.0      8.434          1
   6224      7055.0      8.434          1
   6225      7076.0      8.434          1
   6226      7070.0      8.434          1
   6227      7138.0      8.434          1
   6228      7142.0      8.434          1
   6229      7106.0      8.434          1
   6230      7148.0      8.434          1
   6231      7139.0      8.434          1
   6232      7133.0      8.434          1
   6233      7148.0      8.434          1
   6234      7137.0      8.434          1
   6235      7133.0      8.434          1
   6236      7142.0      8.434          1
   6237      7150.0      8.434          1
   6238      7090.0      8.434          1
   6239      7090.0      8.434          1
   6240      7125.0      8.434          1
   6241      7055.0      8.434          1
   6242      7080.0      8.434          1
   6243      7080.0      8.434          1
   6244      7087.0      8.434          1
   6245      7071.0      8.434          1
   6246      7050.0      8.434          1
   6247      7086.0      8.434          1
   6248      7043.0      8.434          1
   6249      7085.0      8.434          1
   6250      7039.0      8.434          1
   6251      7012.0      8.434          1
   6252      7048.0      8.434          1
   6253      7012.0      8.434          1
   6255      6976.0      8.434          1
   6256      6994.0      8.434          1
   6257      7012.0      8.434          1
   6258      6985.0      8.434          1
   6259      6985.0      8.434          1
   6260      6990.0      8.434          1
   6261      6990.0      8.434          1
   6262      6985.0      8.434          1
   6263      7100.0      8.434          1
   6264      7142.0      8.434          1
   9001      7100.0
   9002      7100.0
   9003      7100.0
   9004      7100.0
   9005      7100.0
   9006      7100.0
   9017      7100.0
   9018      7100.0
   9019      7100.0
   9020      7100.0
   9021      7100.0
   9022      7100.0
  11004      7142.0      4.022          1
  11005      7151.0      4.022          1
  11006      7140.0      4.022          1
  11007      7157.0      4.022          1
  11009      7086.0      4.022          1
  11011      7149.0      4.022          1
  11013      7150.0      4.022          1
  11017      7143.0      4.022          1
  11018      7146.0      4.022          1
  11019      6965.0      4.022          1
  11021      6955.0      4.022          1
  11023      6965.0      4.022          1
  11024      7005.0      4.022          1
  11029      6980.0      4.022          1
  11030      6965.0      4.022          1
  11031      6965.0      4.022          1
  11032      6995.0      4.022          1
  11033      6990.0      4.022          1
  11034      6990.0      4.022          1
  11035      6985.0      4.022          1
  11037      6995.0      4.022          1
  11038      7015.0      4.022          1
  11039      7005.0      4.022          1
  11043      7080.0      4.022          1
  11046      7055.0      4.022          1
  11047      7040.0      4.022          1
  11049      6985.0      4.022          1
  11052      7000.0      4.022          1
  11055      7015.0      4.022          1
  11057      7030.0      4.022          1
  11060      7005.0      4.022          1
  11062      7008.0      4.022          1
  11063      7025.0      4.022          1
  11064      7030.0      4.022          1
  11065      7040.0      4.022          1
  11067      7040.0      4.022          1
  11070      7080.0      4.022          1
  11076      7110.0      4.022          1
  11077      7110.0      4.022          1
  11078      7120.0      4.022          1
  11080      7070.0      4.022          1
  11081      7045.0      4.022          1
  11084      7040.0      4.022          1
  11085      7077.0      4.022          1
  11087      7030.0      4.022          1
  11089      7075.0      4.022          1
  11092      7080.0      4.022          1
  11097      7130.0      4.022          1
  11099      7085.0      4.022          1
  11107      7065.0      4.022          1
  11108      7050.0      4.022          1
  11109      7075.0      4.022          1
  11114      7115.0      4.022          1
  11115      7123.0      4.022          1
  11116      7101.0      4.022          1
  11119      6985.0      4.022          1
  11123      6978.0      4.022          1
  11127      7024.0      4.022          1
  11128      7028.0      4.022          1
  11130      7020.0      4.022          1
  11131      7006.0      4.022          1
  11132      7037.0      4.022          1
  11133      7017.0      4.022          1
  11134      6992.0      4.022          1
  11135      7040.0      4.022          1
  11136      7056.0      4.022          1
  11137      7060.0      4.022          1
  11138      7032.0      4.022          1
  11139      7057.0      4.022          1
  11140      7051.0      4.022          1
  11141      7053.0      4.022          1
  11142      7042.0      4.022          1
  11143      7045.0      4.022          1
  11144      7075.0      4.022          1
  11145      7064.0      4.022          1
  11146      7139.0      4.022          1
  11147      7074.0      4.022          1
  11148      7114.0      4.022          1
  11150      7038.0      4.022          1
  11151      7040.0      4.022          1
  11152      7102.0      4.022          1
  11153      7147.5
  11164      7040.0      4.022          1
  11165      7003.0      4.022          1
  11169      7207.0      4.022          1
  11170      7169.0      4.022          1
  11171      7195.0      4.022          1
  11172      7010.0      4.022          1
  11173      7045.0      4.022          1
  11174      7168.0      4.022          1
  11175      7061.0      4.022          1
  11176      7195.0      4.022          1
  11177      7027.0      4.022          1
  11178      7051.0      4.022          1
  11179      7022.0      4.022          1
  11180      7015.0      4.022          1
  11181      7187.0      4.022          1
  11182      7018.0      4.022          1
  11184      7197.0      4.022          1
  11185      7049.0      4.022          1
  11186      7066.0      4.022          1
  11187      7174.0      4.022          1
  11188      7174.0      4.022          1
  11189      7170.0      4.022          1
  11190      7186.0      4.022          1
  11191      7180.0      4.022          1
  11192      7020.0      4.022          1
  11193      7043.0      4.022          1
  11194      7114.0      4.022          1
  11195      7126.0
  11196      7065.0      4.022          1
  11197      7173.0      4.022          1
  11199      7039.0      4.022          1
  11200      7169.0      4.022          1
  11201      7133.0      4.022          1
  11202      7058.0      4.022          1
  11206      7067.0      4.022          1
  11207      7030.0      4.022          1
  11208      7186.0      4.022          1
  11209      7179.0      4.022          1
  11210      6998.0      4.022          1
  11211      7013.0      4.022          1
  11212      6999.0      4.022          1
  11214      7009.0      4.022          1
  11215      7030.0      4.022          1
  11216      7023.0      4.022          1
  11217      7030.0      4.022          1
  11219      7034.0      4.022          1
  11220      7045.0      4.022          1
  11221      7049.0      4.022          1
  11222      7035.0      4.022          1
  12001      6967.0
  12002      6957.0
  12005      6967.0
  12010      6982.0
  12011      6997.0
  12012      6995.0      4.022          1
  12013      6967.0
  12015      7007.0
  12017      7022.0
  12018      7007.0
  12019      7017.0
  12020      6992.0
  12021      6987.0
  12023      6997.0
  12025      6997.0
  12029      7062.0
  12030      7042.0
  12031      7032.0
  12032      6987.0
  12033      7022.0
  12038      7002.0
  12041      7017.0
  12043      7045.0      4.022          1
  12044      7032.0
  12046      7027.0
  12047      7032.0
  12048      7032.0
  12049      7042.0
  12050      7042.0
  12051      7030.0      4.022          1
  12052      7042.0
  12053      7057.0
  12055      7082.0
  12057      7082.0
  12061      7102.0
  12062      7112.0
  12064      7077.0
  12070      7112.0
  12071      7079.0
  12072      7072.0
  12075      7045.0      4.022          1
  12078      7047.0
  12079      7047.0
  12080      7042.0
  12082      7032.0
  12084      7055.0
  12085      7047.0
  12088      7025.0
  12090      7022.0
  12092      7007.0
  12094      7010.0
  12095      7052.0
  12096      7062.0
  12107      7012.0
  12108      7047.0
  12112      7166.0      4.022          1
  12114      7076.0      4.022          1
  12115      7088.0      4.022          1
  12117      7068.0
  12118      7051.0
  12119      7042.0
  12126      7005.0
  12129      7102.0
  12131      7077.0
  12133      7067.0
  12134      7082.0
  12139      7112.0
  12140      7122.0
  12141      7097.0
  12142      7122.0
  12147      7110.0      4.022          1
  12152      7127.0
  12153      7132.0
  12154      7125.0      4.022          1
  12157      7137.0
  12159      7127.0
  12160      7087.0
  12173      7027.0
  12174      7025.0      4.022          1
  12175      7117.0
  12176      7024.0
  12177      7114.5
  12178      7116.5
  12179      7067.0
  12180      7124.0      4.022          1
  12181      7053.0
  12182      7045.0
  12183      7022.0
  12184      7020.0
  12186      7029.0
  12187      7017.0
  12191      7032.0
  12192      7141.5
  12193      7044.0
  12196      7041.0
  12198      7069.0      4.022          1
  12199      7071.0
  12202      7060.0
  12203      7135.0
  12204      7069.5
  12205      7078.5
  12206      7092.5
  12207      7090.0      4.022          1
  12208      7085.0      4.022          1
  12209      7099.0      4.022          1
  12210      7087.5
  12211      7101.5
  12212      7090.5
  12213      7098.0      4.022          1
  12214      7100.5
  12215      7098.5
  12216      7108.0      4.022          1
  12217      7110.5
  12218      7090.0      4.022          1
  12219      7092.5
  12220      7110.0      4.022          1
  12221      7112.5
  12222      7120.0
  12223      7109.0
  12224      7093.0      4.022          1
  12225      7095.5
  12226      7103.5
  12227      7125.5
  12228      7127.0      4.022          1
  12229      7129.5
  12230      7124.5
  12231      7132.0
  12232      7141.0
  12233      7153.4
  12234      7151.0
  12236      7148.6
  12237      7155.3
  12238      7163.3
  12239      7153.0
  12240      7142.5
  12243      7060.0      4.022          1
  12250      7152.3
  12257      7148.5
  12258      7145.5
  12259      7122.0
  12260      7115.5
  12261      7102.0      4.022          1
  12262      7104.5
  12263      7133.5
  12264      7134.0      4.022          1
  12265      7136.5
  12266      7145.0      4.022          1
  12267      7147.0
  12268      7130.5
  12269      7127.0      4.022          1
  12270      7127.5
  12271      7119.0      4.022          1
  12272      7121.5
  12273      7115.5
  12274      7120.0      4.022          1
  12275      7129.5
  12276      7150.5
  12277      7138.5
  12278      7072.5
  12279      7082.5
  12280      7082.0      4.022          1
  12281      7084.0
  12282      7106.0      4.022          1
  12283      7108.5
  12284      7117.0      4.022          1
  12285      7119.0
  12286      7128.0      4.022          1
  12287      7125.0
  12288      7120.0      4.022          1
  12289      7122.5
  12290      7046.0      4.022          1
  12291      7048.5
  12292      7080.0      4.022          1
  12293      7075.0      4.022          1
  12294      7077.0
  12295      7082.5
  12296      7084.5
  12297      7112.0
  12298      7107.5
  12299      7074.0      4.022          1
  12300      7064.0      4.022          1
  12301      7069.0      4.022          1
  12302      7071.5
  12303      7113.0      4.022          1
  12304      7084.0      4.022          1
  12305      7085.0      4.022          1
  12306      7097.0      4.022          1
  12307      7099.5
  12308      7085.0      4.022          1
  12309      7084.0      4.022          1
  12310      7096.5
  12311      7103.0      4.022          1
  12312      7105.5
  12313      7093.0
  12314      7090.0      4.022          1
  12316      7073.0
  12317      7076.0      4.022          1
  12318      7078.0
  12319      7064.0      4.022          1
  12320      7066.5
  12321      7061.0      4.022          1
  12322      7063.0
  12323      7055.0      4.022          1
  12324      7057.5
  12325      7055.5
  12326      7091.0      4.022          1
  12327      7047.0
  12328      7066.5
  12329      7076.0
  12330      7116.0
  12331      7055.0      4.022          1
  12332      7040.0
  12333      7042.0
  12334      7045.0      4.022          1
  12335      7094.0      4.022          1
  12336      7072.0      4.022          1
  12337      7058.0      4.022          1
  12338      7057.0      4.022          1
  12339      7059.5
  12340      7068.0      4.022          1
  12341      7070.0
  12342      7077.0      4.022          1
  12343      7064.0      4.022          1
  12344      7071.0      4.022          1
  12345      7073.5
  12346      7066.0
  12347      7086.0
  12348      7087.5
  12349      7066.5
  12350      7063.0      4.022          1
  12351      7065.0
  12352      7050.0      4.022          1
  12353      7052.5
  12354      7071.0      4.022          1
  12355      7074.0      4.022          1
  12356      7073.5
  12357      7076.5
  12358      7050.0      4.022          1
  12359      7049.0      4.022          1
  12360      7055.0      4.022          1
  12361      7057.5
  12362      7038.0      4.022          1
  12363      7040.5
  12364      7051.5
  12365      7047.5
  12367      7077.5
  12368      7090.0      4.022          1
  12369      7060.5
  12370     7065.62      4.022          1
  12371      7053.0      4.022          1
  12372      7055.5
  12373      7033.5
  12374      7037.5
  12375      7043.0      4.022          1
  12376      7037.0      4.022          1
  12377      7045.5
  12378      7047.0      4.022          1
  12379      7049.5
  12380      7039.5
  12381      7062.5
  12382      7044.0      4.022          1
  12383      7046.5
  12384      7058.5
  12385      7050.0      4.022          1
  12386      7052.5
  12387      7042.0
  12388      7053.5
  12389      7059.0
  12390      7034.0
  12392      7030.0
  12393      7022.0
  12394      7006.0      4.022          1
  12395      7026.5
  12396      7036.5
  12397      7030.0      4.022          1
  12398      7032.5
  12399      7025.0
  12400      7032.0
  12401      7032.0
  12402      7040.0      4.022          1
  12403      7042.0
  12404      7042.0      4.022          1
  12405      7047.0      4.022          1
  12406      7045.0
  12408      7031.0      4.022          1
  12409      7113.0      4.022          1
  12411      7047.5
  12412      7032.0      4.022          1
  12413      7034.5
  12414      7024.0      4.022          1
  12415      7020.0      4.022          1
  12416      7039.5
  12417      7008.0
  12418      6994.0
  12419      6987.0
  12420      7017.0
  12421      7014.0
  12422      7008.0
  12423      7015.0      4.022          1
  12425      7000.0
  12426      7012.0
  12427      7006.0      4.022          1
  12435      6980.0
  12539      7030.0      4.022          1
  12547      7023.0      4.022          1
  12548      7053.0      4.022          1
  12549      7045.0      4.022          1
  12550      7045.0      4.022          1
  12551      7040.0      4.022          1
  12552      7030.0      4.022          1
  12553      7020.0      4.022          1
  12558      7147.0      4.022          1
  12559      7161.0      4.022          1
  12571      7125.0      4.022          1
  12572      7123.0      4.022          1
  12573      7131.0      4.022          1
  12574      7136.0      4.022          1
  12575      7127.0      4.022          1
  12576      7113.0      4.022          1
  12578      7071.0      4.022          1
  12579      6987.0      4.022          1
  12580      6989.0      4.022          1
  12581      6987.0      4.022          1
  12582      7000.0      4.022          1
  12583      7000.0      4.022          1
  12585      7013.0      4.022          1
  12586      7000.0      4.022          1
  12629      7015.0      4.022          1
  12630      7031.0      4.022          1
  12631      7033.0      4.022          1
  12659      6998.0      4.022          1
  12660      7000.0      4.022          1
  12661      6995.0      4.022          1
  12662      6997.0      4.022          1
  12748      6994.0      4.022          1
  12749      6996.0      4.022          1
  12750      6998.0      4.022          1
  12751      7000.0      4.022          1
  12752      7010.0      4.022          1
  12753      7012.0      4.022          1
  12754      7005.0      4.022          1
  12755      7007.0      4.022          1
  12756      7027.0      4.022          1
  12757      7029.0      4.022          1
  12758      7013.0      4.022          1
  12759      6999.0      4.022          1
  12760      7001.0      4.022          1
  12761      7013.0      4.022          1
  12762      7013.0      4.022          1
  12763      7015.0      4.022          1
  12764      7022.0      4.022          1
  12765      7024.0      4.022          1
  12766      7005.0      4.022          1
  12767      7005.0      4.022          1
  12768      7007.0      4.022          1
  12769      7022.0      4.022          1
  12770      7024.0      4.022          1
  12771      7004.0      4.022          1
  12772      7004.0      4.022          1
  12773      7005.0      4.022          1
  12774      7007.0      4.022          1
  12775      7006.0      4.022          1
  12776      7012.0      4.022          1
  12777      7014.0      4.022          1
  12778      7013.0      4.022          1
  12779      7015.0      4.022          1
  12780      7009.0      4.022          1
  12781      7011.0      4.022          1
  12782      7020.0      4.022          1
  12783      7022.0      4.022          1
  12784      7007.0      4.022          1
  12785      7007.0      4.022          1
  12786      7009.0      4.022          1
  12787      7029.0      4.022          1
  12788      7031.0      4.022          1
  12789      7012.0      4.022          1
  12790      7012.0      4.022          1
  12791      7014.0      4.022          1