[TITLE]
modena -- Bragalli, D'Ambrosio, Lee, Lodi, Toth (2008)

[JUNCTIONS]
;ID              	Elev        	Demand     	Pattern       
  1        39.49         0.06                     ; 
  2        39.62         1.45                     ; 
  3        38.70         5.13                     ; 
  4        37.25         2.76                     ; 
  5        36.27         0.96                     ; 
  6        35.95         0.78                     ; 
  7        35.95         1.03                     ; 
  8        36.09         2.12                     ; 
  9        36.18         1.16                     ; 
 10        37.00         1.78                     ; 
 11        36.50         0.44                     ; 
 12        37.39         0.03                     ; 
 13        38.07         0.57                     ; 
 14        37.02         0.36                     ; 
 15        41.26         3.30                     ; 
 16        39.35         0.03                     ; 
 17        39.53         2.10                     ; 
 18        36.59         4.67                     ; 
 19        36.76         0.00                     ; 
 20        37.72         1.53                     ; 
 21        37.31         4.61                     ; 
 22        37.62         1.06                     ; 
 23        36.99         1.32                     ; 
 24        35.20         2.74                     ; 
 25        35.11         0.59                     ; 
 26        34.65         0.45                     ; 
 27        34.33         0.64                     ; 
 28        36.15         7.11                     ; 
 29        36.30         0.93                     ; 
 30        36.10         0.04                     ; 
 31        36.14         0.02                     ; 
 32        35.80         2.93                     ; 
 33        33.26         2.34                     ; 
 34        33.34         1.94                     ; 
 35        33.51         1.19                     ; 
 36        32.70         1.41                     ; 
 37        32.65         2.98                     ; 
 38        32.56         2.11                     ; 
 39        33.56         7.74                     ; 
 40        31.59         4.29                     ; 
 41        31.38         7.78                     ; 
 42        32.67         3.75                     ; 
 43        33.50         2.37                     ; 
 44        33.57         1.42                     ; 
 45        33.77         0.32                     ; 
 46        34.14         1.14                     ; 
 47        33.68         1.23                     ; 
 48        33.71         1.37                     ; 
 49        31.68         1.18                     ; 
 50        33.34         1.81                     ; 
 51        32.83         0.97                     ; 
 52        32.78         0.55                     ; 
 53        39.28         2.77                     ; 
 54        37.12         0.65                     ; 
 55        36.48         1.38                     ; 
 56        36.42         8.28                     ; 
 57        36.13         1.22                     ; 
 58        36.05         3.85                     ; 
 59        36.77         2.62                     ; 
 60        35.48         2.78                     ; 
 61        35.05         1.56                     ; 
 62        35.10         1.16                     ; 
 63        37.95         1.22                     ; 
 64        38.44         2.93                     ; 
 65        37.81         1.13                     ; 
 66        38.22         1.12                     ; 
 67        38.73         0.48                     ; 
 68        38.95         1.37                     ; 
 69        39.70         2.26                     ; 
 70        40.59         1.31                     ; 
 71        40.81         1.06                     ; 
 72        41.06         0.38                     ; 
 73        41.45         1.76                     ; 
 74        41.83         0.56                     ; 
 75        41.44         0.00                     ; 
 76        41.09         4.64                     ; 
 77        40.74         1.03                     ; 
 78        38.60         3.08                     ; 
 79        36.91         1.60                     ; 
 80        36.75         4.49                     ; 
 81        36.81         1.25                     ; 
 82        37.05         0.87                     ; 
 83        35.88         0.72                     ; 
 84        36.45         0.49                     ; 
 85        36.16         3.92                     ; 
 86        34.99         0.94                     ; 
 87        35.61         3.33                     ; 
 88        34.89         4.17                     ; 
 89        35.59         1.44                     ; 
 90        35.70         1.84                     ; 
 91        35.20         2.00                     ; 
 92        35.64         2.24                     ; 
 93        35.93         0.20                     ; 
 94        37.64         2.27                     ; 
 95        37.17         1.44                     ; 
 96        37.10         2.67                     ; 
 97        36.97         0.60                     ; 
 98        37.00         2.76                     ; 
 99        36.74         0.05                     ; 
100        34.78         2.06                     ; 
101        34.26         3.19                     ; 
102        33.66         4.69                     ; 
103        33.78         1.70                     ; 
104        33.75         0.02                     ; 
105        33.38         0.10                     ; 
106        34.85         1.11                     ; 
107        34.27         1.02                     ; 
108        34.30         0.88                     ; 
109        33.95         2.33                     ; 
110        33.92         0.31                     ; 
111        32.32         0.45                     ; 
112        34.76         2.96                     ; 
113        34.21         8.12                     ; 
114        34.92         1.76                     ; 
115        32.96         5.96                     ; 
116        30.69         0.00                     ; 
117        30.59         6.34                     ; 
118        30.73         0.00                     ; 
119        30.70         0.00                     ; 
120        31.02         3.03                     ; 
121        31.03         1.85                     ; 
122        31.75         1.77                     ; 
123        32.00         1.48                     ; 
124        32.05         0.00                     ; 
125        32.10         1.32                     ; 
126        33.76         2.24                     ; 
127        32.27         1.26                     ; 
128        31.86         5.39                     ; 
129        32.42         1.00                     ; 
130        33.00         1.61                     ; 
131        33.63         4.71                     ; 
132        36.37         2.64                     ; 
133        35.69         2.11                     ; 
134        35.52         1.51                     ; 
135        35.56         0.84                     ; 
136        35.92         1.05                     ; 
137        35.37         1.16                     ; 
138        35.06         2.45                     ; 
139        34.12         1.66                     ; 
140        39.35         0.00                     ; 
141        39.10         0.00                     ; 
142        39.84         0.00                     ; 
143        39.84         0.80                     ; 
144        39.45         0.33                     ; 
145        39.70         0.34                     ; 
146        37.95         1.02                     ; 
147        37.61         1.23                     ; 
148        37.95         0.09                     ; 
149        35.69         0.43                     ; 
150        35.32         1.56                     ; 
151        35.81         0.80                     ; 
152        35.81         1.38                     ; 
153        36.02         0.53                     ; 
154        38.25         0.59                     ; 
155        37.50         2.33                     ; 
156        37.54         0.03                     ; 
157        37.08         0.31                     ; 
158        36.76         8.49                     ; 
159        35.88         0.32                     ; 
160        35.77         0.21                     ; 
161        34.70         0.02                     ; 
162        35.37         1.23                     ; 
163        34.99         0.99                     ; 
164        35.93         0.55                     ; 
165        36.27         0.78                     ; 
166        32.67         0.27                     ; 
167        32.75         0.27                     ; 
168        32.88         0.07                     ; 
169        34.09         9.47                     ; 
170        36.09         2.64                     ; 
171        36.05         1.02                     ; 
172        36.04         0.88                     ; 
173        36.02         0.49                     ; 
174        31.76         0.00                     ; 
175        31.91         1.12                     ; 
176        31.80         0.00                     ; 
177        31.48         0.00                     ; 
178        31.12         0.01                     ; 
179        31.10         0.00                     ; 
180        31.19         0.00                     ; 
181        30.39         0.00                     ; 
182        30.55         0.01                     ; 
183        31.13         1.84                     ; 
184        31.81         0.04                     ; 
185        32.34         1.68                     ; 
186        32.83         2.37                     ; 
187        33.69         0.09                     ; 
188        33.17         1.23                     ; 
189        33.23         3.90                     ; 
190        33.34         1.17                     ; 
191        33.77         1.70                     ; 
192        33.77         2.15                     ; 
193        32.20         4.00                     ; 
194        34.41         4.46                     ; 
195        33.39         0.05                     ; 
196        34.34         0.01                     ; 
197        35.03         4.12                     ; 
198        34.44         0.39                     ; 
199        34.53         0.15                     ; 
200        34.94         1.82                     ; 
201        34.70         3.43                     ; 
202        36.70         0.62                     ; 
203        36.20         4.17                     ; 
204        35.03         2.26                     ; 
205        36.77         1.01                     ; 
206        36.20         0.54                     ; 
207        37.88         0.77                     ; 
208        38.03         0.33                     ; 
209        36.86         1.15                     ; 
210        37.24         1.53                     ; 
211        36.66         0.00                     ; 
212        36.49         0.30                     ; 
213        37.30         0.32                     ; 
214        40.30         0.56                     ; 
215        39.85         0.00                     ; 
216        41.00         0.19                     ; 
217        41.16         1.42                     ; 
218        35.05         0.59                     ; 
219        33.92         1.48                     ; 
220        32.14         0.92                     ; 
221        34.17         0.33                     ; 
222        35.10         0.06                     ; 
223        31.55         0.46                     ; 
224        31.75         0.72                     ; 
225        32.07         0.00                     ; 
226        31.94         0.00                     ; 
227        31.66         0.20                     ; 
228        31.04         0.08                     ; 
229        31.05         1.30                     ; 
230        38.49         1.07                     ; 
231        35.68         1.03                     ; 
232        35.39         0.03                     ; 
233        34.89         1.15                     ; 
234        34.86         1.43                     ; 
235        34.99         4.86                     ; 
236        32.54         4.71                     ; 
237        34.41         1.34                     ; 
238        36.16         1.87                     ; 
239        35.30         0.82                     ; 
240        35.17         0.94                     ; 
241        32.92         0.09                     ; 
242        33.07         1.28                     ; 
243        31.91         0.43                     ; 
244        32.00         0.51                     ; 
245        32.05         0.00                     ; 
246        32.05         0.01                     ; 
247        30.70         0.01                     ; 
248        31.33         0.00                     ; 
249        36.30         1.75                     ; 
250        35.83         1.03                     ; 
251        36.95         1.26                     ; 
252        38.01         1.36                     ; 
253        36.65         0.14                     ; 
254        36.91         0.00                     ; 
255        36.77         1.96                     ; 
256        31.50         2.21                     ; 
257        38.65         0.62                     ; 
258        39.54         0.00                     ; 
259        39.58         0.50                     ; 
260        39.58         0.11                     ; 
261        40.55         0.12                     ; 
262        40.79         0.22                     ; 
263        40.95         1.28                     ; 
264        37.76         0.19                     ; 
265        35.96         0.22                     ; 
266        36.81         1.19                     ; 
267        36.21         1.69                     ; 
268        35.61         0.43                     ; 

[RESERVOIRS]
;ID              	Head        	Pattern         
269        72.00                     ; 
270        73.80                     ; 
271        73.00                     ; 
272        74.50                     ; 

[TANKS]
;ID              	Elevation   	InitLevel   	MinLevel    	MaxLevel    	Diameter    	MinVol      	VolCurve

[PIPES]
;ID              	Node1           	Node2           	Length      	Diameter    	Roughness   	MinorLoss   	Status
  1   1  16        46.84       125.00       130.00         0.00             Open    ; 
  2  16   2       267.68       100.00       130.00         0.00             Open    ; 
  3   2   3       541.07       100.00       130.00         0.00             Open    ; 
  4   3   4       542.29       100.00       130.00         0.00             Open    ; 
  5   4   5       404.72       100.00       130.00         0.00             Open    ; 
  6   5 206       151.67       100.00       130.00         0.00             Open    ; 
  7 206   6       341.57       100.00       130.00         0.00             Open    ; 
  8   1 140        39.91       100.00       130.00         0.00             Open    ; 
  9 140 143       269.73       100.00       130.00         0.00             Open    ; 
 10 143 145        45.92       100.00       130.00         0.00             Open    ; 
 11 145 146       890.09       100.00       130.00         0.00             Open    ; 
 12 146 148        33.79       100.00       130.00         0.00             Open    ; 
 13 148  63         6.03       100.00       130.00         0.00             Open    ; 
 14  63 149       367.92       125.00       130.00         0.00             Open    ; 
 15 149 150        97.66       125.00       130.00         0.00             Open    ; 
 16 150  60       322.19       100.00       130.00         0.00             Open    ; 
 17  60  61       359.48       100.00       130.00         0.00             Open    ; 
 18  61 218       199.59       100.00       130.00         0.00             Open    ; 
 19   1 141        57.06       200.00       130.00         0.00             Open    ; 
 20 141 142       223.41       200.00       130.00         0.00             Open    ; 
 21 142 144        47.03       200.00       130.00         0.00             Open    ; 
 22 144 257       782.67       200.00       130.00         0.00             Open    ; 
 23 257  53       231.87       125.00       130.00         0.00             Open    ; 
 24  53 251       279.84       100.00       130.00         0.00             Open    ; 
 25 251  57       145.70       100.00       130.00         0.00             Open    ; 
 26  57  58        81.10       100.00       130.00         0.00             Open    ; 
 27  58  59       550.17       100.00       130.00         0.00             Open    ; 
 28  53 230       155.63       100.00       130.00         0.00             Open    ; 
 29 230 252       357.81       100.00       130.00         0.00             Open    ; 
 30 252   3       267.32       100.00       130.00         0.00             Open    ; 
 31   3  13       612.50       100.00       130.00         0.00             Open    ; 
 32  13  12       160.50       100.00       130.00         0.00             Open    ; 
 33  12  11       531.71       100.00       130.00         0.00             Open    ; 
 34   1 258        41.91       200.00       130.00         0.00             Open    ; 
 35 258 259        95.22       200.00       130.00         0.00             Open    ; 
 36 259 260        25.13       200.00       130.00         0.00             Open    ; 
 37 260 215       158.12       200.00       130.00         0.00             Open    ; 
 38 215 261        95.40       200.00       130.00         0.00             Open    ; 
 39 261  77        52.92       200.00       130.00         0.00             Open    ; 
 40  77 262        44.92       200.00       130.00         0.00             Open    ; 
 41 262 216       127.05       200.00       130.00         0.00             Open    ; 
 42 216 263        56.68       200.00       130.00         0.00             Open    ; 
 43 263  76       181.29       200.00       130.00         0.00             Open    ; 
 44  76 217       220.90       200.00       130.00         0.00             Open    ; 
 45 217  75        67.65       200.00       130.00         0.00             Open    ; 
 46  75  74        36.06       200.00       130.00         0.00             Open    ; 
 47  74  73       242.29       150.00       130.00         0.00             Open    ; 
 48  73  72        70.45       150.00       130.00         0.00             Open    ; 
 49  72  71       112.83       150.00       130.00         0.00             Open    ; 
 50  71  70       105.72       150.00       130.00         0.00             Open    ; 
 51  70  69       199.42       150.00       130.00         0.00             Open    ; 
 52  69  68       180.64       125.00       130.00         0.00             Open    ; 
 53  68  78       288.76       125.00       130.00         0.00             Open    ; 
 54  78 154        69.26       100.00       130.00         0.00             Open    ; 
 55 154  79       718.45       100.00       130.00         0.00             Open    ; 
 56  79 155       390.78       100.00       130.00         0.00             Open    ; 
 57 155 156        24.00       125.00       130.00         0.00             Open    ; 
 58 156  95       504.52       125.00       130.00         0.00             Open    ; 
 59  95  96        41.78       150.00       130.00         0.00             Open    ; 
 60  96  97       367.93       150.00       130.00         0.00             Open    ; 
 61  97 157       101.86       150.00       130.00         0.00             Open    ; 
 62 157  98       125.36       150.00       130.00         0.00             Open    ; 
 63  98 158       699.76       150.00       130.00         0.00             Open    ; 
 64 158 136       448.05       200.00       130.00         0.00             Open    ; 
 65 136 159       114.29       200.00       130.00         0.00             Open    ; 
 66 159 160       197.30       200.00       130.00         0.00             Open    ; 
 67 160 137       235.98       200.00       130.00         0.00             Open    ; 
 68 137 135       224.87       200.00       130.00         0.00             Open    ; 
 69 135 222       176.73       125.00       130.00         0.00             Open    ; 
 70 222 161        76.44       100.00       130.00         0.00             Open    ; 
 71 161 131       356.94       100.00       130.00         0.00             Open    ; 
 72 131 242       443.79       100.00       130.00         0.00             Open    ; 
 73 242 130        20.55       100.00       130.00         0.00             Open    ; 
 74 130 241       113.33       100.00       130.00         0.00             Open    ; 
 75 241 168        25.96       100.00       130.00         0.00             Open    ; 
 76 168 167       145.04       100.00       130.00         0.00             Open    ; 
 77 167 166        55.24       100.00       130.00         0.00             Open    ; 
 78 166 129       208.22       100.00       130.00         0.00             Open    ; 
 79 129 125       190.43       100.00       130.00         0.00             Open    ; 
 80 125 246        70.98       100.00       130.00         0.00             Open    ; 
 81 246 245        52.04       100.00       130.00         0.00             Open    ; 
 82 245 124        34.03       100.00       130.00         0.00             Open    ; 
 83 124 225        79.47       100.00       130.00         0.00             Open    ; 
 84 225 226       277.99       100.00       130.00         0.00             Open    ; 
 85 176 227        86.03       100.00       130.00         0.00             Open    ; 
 86 227 177       296.25       100.00       130.00         0.00             Open    ; 
 87 177 180       111.30       100.00       130.00         0.00             Open    ; 
 88 180 178       123.37       100.00       130.00         0.00             Open    ; 
 89 178 179       196.27       100.00       130.00         0.00             Open    ; 
 90 179 228       198.46       100.00       130.00         0.00             Open    ; 
 91 228 229        75.62       100.00       130.00         0.00             Open    ; 
 92 229 121       110.14       100.00       130.00         0.00             Open    ; 
 93 121 118       423.57       100.00       130.00         0.00             Open    ; 
 94 118 117       116.57       100.00       130.00         0.00             Open    ; 
 95 117 181       100.61       100.00       130.00         0.00             Open    ; 
 96 181 182       164.84       100.00       130.00         0.00             Open    ; 
 97 182 116        47.49       100.00       130.00         0.00             Open    ; 
 98 116 247        87.54       100.00       130.00         0.00             Open    ; 
 99  49 184       189.27       150.00       130.00         0.00             Open    ; 
100 184  41       244.80       150.00       130.00         0.00             Open    ; 
101  41 248       293.47       150.00       130.00         0.00             Open    ; 
102 248  40       308.64       150.00       130.00         0.00             Open    ; 
103  40  39       566.57       150.00       130.00         0.00             Open    ; 
104 226 176        95.14       100.00       130.00         0.00             Open    ; 
105 247 183       248.55       100.00       130.00         0.00             Open    ; 
106 183  49       187.78       100.00       130.00         0.00             Open    ; 
107  39  38       357.67       125.00       130.00         0.00             Open    ; 
108  38  37       700.57       100.00       130.00         0.00             Open    ; 
109  37 193       404.46       100.00       130.00         0.00             Open    ; 
110 193  36       160.86       125.00       130.00         0.00             Open    ; 
111  36 194       557.42       125.00       130.00         0.00             Open    ; 
112 194  27       127.02       150.00       130.00         0.00             Open    ; 
113  27  26        46.66       150.00       130.00         0.00             Open    ; 
114  26 195       674.32       150.00       130.00         0.00             Open    ; 
115 195  33        50.76       125.00       130.00         0.00             Open    ; 
116  26 196       138.54       100.00       130.00         0.00             Open    ; 
117 196  25       199.33       100.00       130.00         0.00             Open    ; 
118  25 232       231.12       100.00       130.00         0.00             Open    ; 
119 232  24       187.06       100.00       130.00         0.00             Open    ; 
120  24 231       240.64       100.00       130.00         0.00             Open    ; 
121 231   7       173.44       125.00       130.00         0.00             Open    ; 
122   7   6        23.58       100.00       130.00         0.00             Open    ; 
123   6  28       526.74       125.00       130.00         0.00             Open    ; 
124  28 249       500.72       100.00       130.00         0.00             Open    ; 
125 249  29        15.29       100.00       130.00         0.00             Open    ; 
126   7   8       265.92       125.00       130.00         0.00             Open    ; 
127   8  23       355.51       125.00       130.00         0.00             Open    ; 
128  23 207       189.78       125.00       130.00         0.00             Open    ; 
129 207 208        28.18       125.00       130.00         0.00             Open    ; 
130 208  22       129.34       125.00       130.00         0.00             Open    ; 
131  22  21       361.24       125.00       130.00         0.00             Open    ; 
132  21 264       223.52       150.00       130.00         0.00             Open    ; 
133  20 210       185.17       150.00       130.00         0.00             Open    ; 
134 210 209       154.95       150.00       130.00         0.00             Open    ; 
135 209  19        34.71       200.00       130.00         0.00             Open    ; 
136 264  20        31.14       150.00       130.00         0.00             Open    ; 
137  19 253        42.52       200.00       130.00         0.00             Open    ; 
138 253  18       356.45       200.00       130.00         0.00             Open    ; 
139  18 211       128.82       200.00       130.00         0.00             Open    ; 
140 211 212       140.66       200.00       130.00         0.00             Open    ; 
141 212  11       113.32       200.00       130.00         0.00             Open    ; 
142  11  10       555.23       150.00       130.00         0.00             Open    ; 
143  10   4       272.68       150.00       130.00         0.00             Open    ; 
144  59 203       315.88       100.00       130.00         0.00             Open    ; 
145 203 202       284.93       100.00       130.00         0.00             Open    ; 
146 202  31        97.93       125.00       130.00         0.00             Open    ; 
147 265  32       262.94       100.00       130.00         0.00             Open    ; 
148  32  33       635.82       100.00       130.00         0.00             Open    ; 
149  33  34       415.73       150.00       130.00         0.00             Open    ; 
150  34  35       122.60       150.00       130.00         0.00             Open    ; 
151 265  31        29.56       100.00       130.00         0.00             Open    ; 
152  59 205        33.80       100.00       130.00         0.00             Open    ; 
153 205  88       377.12       100.00       130.00         0.00             Open    ; 
154  88  89       629.17       150.00       130.00         0.00             Open    ; 
155  89  90       133.28       200.00       130.00         0.00             Open    ; 
156  90  91       348.05       200.00       130.00         0.00             Open    ; 
157  91 234       292.89       300.00       130.00         0.00             Open    ; 
158 234 109       488.99       300.00       130.00         0.00             Open    ; 
159 138 235       289.88       100.00       130.00         0.00             Open    ; 
160 235 110       486.72       100.00       130.00         0.00             Open    ; 
161 102 106       260.92       200.00       130.00         0.00             Open    ; 
162 106  91       163.58       200.00       130.00         0.00             Open    ; 
163  48 108       424.07       200.00       130.00         0.00             Open    ; 
164 108 109       173.66       200.00       130.00         0.00             Open    ; 
165 109 110        99.55       150.00       130.00         0.00             Open    ; 
166 110 111       307.92       150.00       130.00         0.00             Open    ; 
167  59 204       283.84       100.00       130.00         0.00             Open    ; 
168 204 200       141.49       125.00       130.00         0.00             Open    ; 
169 200 100        58.27       125.00       130.00         0.00             Open    ; 