[TITLE]


[JUNCTIONS]
;ID              	Elev        	Demand      	Pattern         
 J-1             	910.9295    	5.216       	11              	;
 J-10            	946.8868    	2.978       	11              	;
 J-100           	873.7346    	1.794       	11              	;
 J-101           	913.5342    	2.215       	11              	;
 J-102           	1077.363    	1.364       	11              	;
 J-103           	1070.743    	3.001       	11              	;
 J-104           	911.5759    	4.087       	11              	;
 J-105           	949.6541    	0.962       	11              	;
 J-106           	844.8198    	0.145       	11              	;
 J-107           	911.53      	0.457       	11              	;
 J-108           	878.8645    	6.244       	11              	;
 J-109           	884.2694    	5.242       	11              	;
 J-11            	1284.016    	1.279       	11              	;
 J-110           	894.705     	2.421       	11              	;
 J-111           	793.0397    	2.917       	11              	;
 J-113           	866.5101    	0.939       	11              	;
 J-114           	969.5087    	0           	                	;
 J-115           	868.9144    	0.371       	11              	;
 J-116           	845.4252    	0.089       	11              	;
 J-117           	869.8613    	0.147       	11              	;
 J-118           	864.5       	0           	                	;
 J-119           	831.8525    	1.804       	11              	;
 J-12            	869.4212    	2.757       	11              	;
 J-120           	855.4727    	2.286       	11              	;
 J-121           	865.048     	0.749       	11              	;
 J-122           	889.9908    	2.215       	11              	;
 J-123           	905.8547    	0.803       	11              	;
 J-124           	941.5821    	3.403       	11              	;
 J-125           	858.1315    	1.52        	11              	;
 J-126           	889.3646    	2.034       	11              	;
 J-127           	867.1315    	1.906       	11              	;
 J-128           	842.6745    	0.124       	11              	;
 J-129           	911.0619    	0.271       	11              	;
 J-13            	922.5289    	1.096       	11              	;
 J-130           	856.7444    	1.247       	11              	;
 J-131           	928.6189    	0.541       	11              	;
 J-132           	890.2722    	0.559       	11              	;
 J-133           	871.437     	1.557       	11              	;
 J-134           	872.5357    	5.255       	11              	;
 J-135           	862.8616    	1.263       	11              	;
 J-136           	899.9942    	2.59        	11              	;
 J-137           	897.2423    	3.803       	11              	;
 J-138           	896.0107    	0.643       	11              	;
 J-139           	886.1169    	0.795       	11              	;
 J-14            	975.7794    	0.938       	11              	;
 J-140           	898.5971    	2.791       	11              	;
 J-141           	899.8969    	0.501       	11              	;
 J-142           	895.0644    	1.665       	11              	;
 J-143           	884.2805    	4.014       	11              	;
 J-144           	837.9       	0.304       	11              	;
 J-145           	1475.718    	2.139       	11              	;
 J-146           	850.5697    	0.4         	11              	;
 J-147           	808.6201    	1.972       	11              	;
 J-148           	829.0306    	0.869       	11              	;
 J-149           	850.6763    	2.994       	11              	;
 J-15            	873.707     	1.41        	11              	;
 J-150           	873.834     	3.706       	11              	;
 J-151           	902.9547    	0.811       	11              	;
 J-152           	1010.813    	1.628       	11              	;
 J-153           	1009.462    	2.737       	11              	;
 J-154           	1037.944    	5.293       	11              	;
 J-155           	857.8021    	0.62        	11              	;
 J-156           	858.4855    	0.354       	11              	;
 J-157           	888.071     	0.25        	11              	;
 J-158           	905.4678    	1.066       	11              	;
 J-159           	881.181     	0.175       	11              	;
 J-16            	873.8046    	1.649       	11              	;
 J-160           	904.007     	0.365       	11              	;
 J-161           	1204.991    	0.916       	11              	;
 J-162           	816.3106    	0           	                	;
 J-163           	851.4582    	4.332       	11              	;
 J-164           	953.9335    	2.933       	11              	;
 J-165           	1011.838    	1.321       	11              	;
 J-166           	1161.921    	1.279       	11              	;
 J-167           	881.122     	2.665       	11              	;
 J-168           	929.3681    	1.42        	11              	;
 J-169           	817.9205    	8.016       	11              	;
 J-17            	821.316     	0.443       	11              	;
 J-170           	920.4334    	4.818       	11              	;
 J-171           	907.8921    	1.54        	11              	;
 J-173           	986.5501    	5.881       	11              	;
 J-174           	864.2231    	1.358       	11              	;
 J-175           	977.2876    	0.461       	11              	;
 J-176           	865.7123    	2.688       	11              	;
 J-177           	938.1194    	1.957       	11              	;
 J-178           	1028.286    	6.217       	11              	;
 J-179           	861.959     	0.522       	11              	;
 J-18            	868.2047    	1.864       	11              	;
 J-180           	857.1237    	1.018       	11              	;
 J-181           	858.6425    	1.353       	11              	;
 J-182           	879.0841    	0.691       	11              	;
 J-183           	897.244     	0           	                	;
 J-184           	951.3792    	1.402       	11              	;
 J-185           	858.0267    	1.87        	11              	;
 J-186           	863.4764    	3.146       	11              	;
 J-187           	916.9565    	0.666       	11              	;
 J-188           	865.8304    	0.74        	11              	;
 J-189           	898.5654    	5.911       	11              	;
 J-19            	859.6194    	3.238       	11              	;
 J-190           	1015.941    	2.746       	11              	;
 J-191           	864.9523    	0           	                	;
 J-192           	872.2225    	1.751       	11              	;
 J-193           	853.5125    	0.738       	11              	;
 J-194           	859.9335    	0.515       	11              	;
 J-195           	858.1615    	1.524       	11              	;
 J-196           	915.3968    	0.344       	11              	;
 J-197           	907.5625    	0.529       	11              	;
 J-198           	1298.526    	0           	                	;
 J-199           	897.2482    	0.516       	11              	;
 J-2             	1035.814    	3.78        	11              	;
 J-20            	904.7936    	0.961       	11              	;
 J-200           	882.8318    	0.376       	11              	;
 J-201           	912.1286    	4.249       	11              	;
 J-202           	975.9441    	1.057       	11              	;
 J-203           	1274.924    	2.286       	11              	;
 J-204           	1020.614    	5.436       	11              	;
 J-205           	929.8282    	2.219       	11              	;
 J-206           	810.9816    	0.796       	11              	;
 J-207           	810.231     	4.055       	11              	;
 J-208           	797.0452    	5.296       	11              	;
 J-209           	833.761     	2.624       	11              	;
 J-21            	872.83      	2.685       	11              	;
 J-210           	881.0952    	0.613       	11              	;
 J-211           	870.8761    	1.588       	11              	;
 J-212           	915.023     	0.213       	11              	;
 J-213           	916.5871    	0.255       	11              	;
 J-214           	855.1732    	0.689       	11              	;
 J-215           	893.2797    	0           	                	;
 J-216           	899.2355    	0.059       	11              	;
 J-217           	940.975     	0.053       	11              	;
 J-218           	875.88      	0.376       	11              	;
 J-219           	837.5442    	2.461       	11              	;
 J-22            	919.4841    	4.585       	11              	;
 J-220           	879.9132    	4.198       	11              	;
 J-221           	1085.514    	3.202       	11              	;
 J-222           	873.9936    	2.001       	11              	;
 J-223           	860.3589    	0.869       	11              	;
 J-224           	875.0416    	0.915       	11              	;
 J-226           	869.5549    	0.369       	11              	;
 J-227           	899.2083    	0.725       	11              	;
 J-228           	1020.684    	0.878       	11              	;
 J-229           	932.679     	0.531       	11              	;
 J-23            	768.2193    	8.792       	11              	;
 J-230           	1277.227    	3.228       	11              	;
 J-231           	1136.799    	4.958       	11              	;
 J-232           	1203.467    	1.322       	11              	;
 J-233           	908.5156    	2.348       	11              	;
 J-234           	976.4861    	2.275       	11              	;
 J-235           	1069.859    	0.795       	11              	;
 J-236           	918.6333    	8.321       	11              	;
 J-237           	915.1697    	0.203       	11              	;
 J-239           	896.6388    	0.054       	11              	;
 J-24            	825.5844    	0.319       	11              	;
 J-240           	891.7151    	0.521       	11              	;
 J-241           	900.2406    	9.623       	11              	;
 J-242           	1130.982    	9.077       	11              	;
 J-243           	872.9894    	0.716       	11              	;
 J-244           	933.1938    	1.53        	11              	;
 J-245           	910.5057    	1.824       	11              	;
 J-246           	855.0912    	0.34        	11              	;
 J-247           	851.2573    	0.855       	11              	;
 J-248           	895.2034    	0.263       	11              	;
 J-249           	847.9325    	0.474       	11              	;
 J-25            	871.3768    	1.501       	11              	;
 J-250           	854.3499    	0.167       	11              	;
 J-251           	954.1266    	3.841       	11              	;
 J-252           	1060.42     	2.062       	11              	;
 J-253           	896.6505    	0.123       	11              	;
 J-254           	865.8737    	1.921       	11              	;
 J-255           	902.4641    	1.646       	11              	;
 J-256           	889.959     	1.049       	11              	;
 J-257           	915.0623    	1.69        	11              	;
 J-258           	882.0197    	0.107       	11              	;
 J-259           	857.5723    	0.286       	11              	;
 J-26            	802.1866    	2.163       	11              	;
 J-260           	780.7627    	1.813       	11              	;
 J-261           	731.7192    	1.303       	11              	;
 J-262           	801.576     	1.769       	11              	;
 J-263           	1503.891    	1.419       	11              	;
 J-264           	1394.023    	5.456       	11              	;
 J-265           	1486.987    	1.346       	11              	;
 J-266           	1652.198    	1.045       	11              	;
 J-267           	796.8025    	2.514       	11              	;
 J-268           	933.6047    	5.442       	11              	;
 J-269           	792.9393    	1.781       	11              	;
 J-27            	884.9385    	0.429       	11              	;
 J-270           	928.4474    	0.17        	11              	;
 J-271           	1041.089    	0.793       	11              	;
 J-272           	955.5141    	3.296       	11              	;
 J-273           	864.853     	0.729       	11              	;
 J-274           	906.9274    	0.555       	11              	;
 J-275           	857.1678    	0.473       	11              	;
 J-276           	853.0327    	0.767       	11              	;
 J-277           	900.4609    	0.856       	11              	;
 J-278           	959.5438    	0.708       	11              	;
 J-279           	943.0487    	1.462       	11              	;
 J-28            	857.9258    	1.888       	11              	;
 J-280           	939.7632    	4.046       	11              	;
 J-281           	1281.842    	1.609       	11              	;
 J-282           	907.3055    	3.74        	11              	;
 J-283           	917.2003    	3.508       	11              	;
 J-284           	821.1119    	4.406       	11              	;
 J-286           	1009.608    	0.897       	11              	;
 J-287           	1004.956    	0.377       	11              	;
 J-288           	996.0931    	0.667       	11              	;
 J-289           	911.8095    	1.909       	11              	;
 J-29            	845.8478    	1.525       	11              	;
 J-290           	876.6397    	2.159       	11              	;
 J-291           	882.3793    	2.964       	11              	;
 J-292           	865.2385    	0.52        	11              	;
 J-294           	958.9999    	0.036       	11              	;
 J-295           	961.3851    	0.173       	11              	;
 J-296           	888.8898    	5.631       	11              	;
 J-297           	1209.545    	0.33        	11              	;
 J-298           	1124.182    	0.486       	11              	;
 J-299           	811.7334    	6.832       	11              	;
 J-3             	905.9592    	2.546       	11              	;
 J-30            	892.6323    	6.511       	11              	;
 J-300           	879.9893    	1.801       	11              	;
 J-301           	807.3615    	1.424       	11              	;
 J-302           	859.6786    	0.87        	11              	;
 J-303           	854.8957    	5.518       	11              	;
 J-304           	891.0228    	0.164       	11              	;
 J-305           	891.0461    	0.469       	11              	;
 J-306           	957.9426    	1.05        	11              	;
 J-307           	867.726     	2.845       	11              	;
 J-308           	888.3326    	0.32        	11              	;
 J-309           	1007.329    	0.295       	11              	;
 J-31            	857.2095    	7.831       	11              	;
 J-310           	969.0999    	1.129       	11              	;
 J-311           	832.066     	3.565       	11              	;
 J-313           	877.1818    	0.196       	11              	;
 J-314           	916.7357    	0.232       	11              	;
 J-315           	882.6295    	1.484       	11              	;
 J-316           	863.3277    	0.591       	11              	;
 J-317           	862.3051    	1.097       	11              	;
 J-318           	894.0441    	6.278       	11              	;
 J-32            	855.0686    	0.761       	11              	;
 J-320           	844.4197    	1.309       	11              	;
 J-321           	1057.044    	0.151       	11              	;
 J-322           	1205.271    	0.796       	11              	;
 J-324           	826.4572    	2.084       	11              	;
 J-325           	916.9662    	1.006       	11              	;
 J-326           	926.6071    	2.372       	11              	;
 J-327           	1104.847    	2.69        	11              	;
 J-328           	1263.674    	1.53        	11              	;
 J-33            	993.8724    	2.771       	11              	;
 J-330           	852.6658    	1.167       	11              	;
 J-331           	895.9724    	3.944       	11              	;
 J-332           	1468.462    	2.838       	11              	;
 J-333           	1478.405    	3.101       	11              	;
 J-334           	897.9674    	1.681       	11              	;
 J-335           	910.0288    	3.377       	11              	;
 J-336           	873.205     	2.764       	11              	;
 J-337           	860.3036    	0.529       	11              	;
 J-338           	807.9829    	1.619       	11              	;
 J-339           	853.9338    	0.161       	11              	;
 J-34            	1569.882    	1.917       	11              	;
 J-340           	870.2347    	3.777       	11              	;
 J-341           	874.934     	1.375       	11              	;
 J-342           	943.7942    	0.343       	11              	;
 J-343           	918.5153    	1.185       	11              	;
 J-344           	916.2611    	1.714       	11              	;
 J-345           	787.8898    	2.282       	11              	;
 J-346           	1348.762    	4.35        	11              	;
 J-347           	923.1267    	1.009       	11              	;
 J-348           	875.9151    	0.493       	11              	;
 J-349           	871.4737    	0.397       	11              	;
 J-35            	946.3931    	1.293       	11              	;
 J-350           	966.1048    	0.48        	11              	;
 J-351           	859.9092    	1.605       	11              	;
 J-352           	904.6806    	0.415       	11              	;
 J-353           	888.1711    	0.904       	11              	;
 J-354           	917.8163    	0.746       	11              	;
 J-355           	910.079     	2.367       	11              	;
 J-356           	858.5777    	0.299       	11              	;
 J-357           	1225.613    	8.572       	11              	;
 J-358           	953.0703    	0.856       	11              	;
 J-359           	1182.432    	1.463       	11              	;
 J-36            	869.0413    	9.229       	11              	;
 J-361           	986.5096    	0.923       	11              	;
 J-362           	825.7568    	1.162       	11              	;
 J-363           	908.1333    	0.534       	11              	;
 J-364           	908.2796    	0.143       	11              	;
 J-365           	946.6546    	0.392       	11              	;
 J-366           	959.4054    	0.053       	11              	;
 J-367           	975.3076    	3.851       	11              	;
 J-368           	874.2568    	2.78        	11              	;
 J-369           	934.5998    	1.073       	11              	;
 J-37            	884.9142    	4.489       	11              	;
 J-370           	960.2401    	1.532       	11              	;
 J-371           	1042.229    	0.377       	11              	;
 J-372           	940.2241    	0.105       	11              	;
 J-373           	905.1574    	4.307       	11              	;
 J-374           	915.1223    	0.817       	11              	;
 J-375           	805.4102    	5.107       	11              	;
 J-376           	890.8901    	1.608       	11              	;
 J-377           	890.4012    	2.195       	11              	;
 J-378           	912.557     	0.982       	11              	;
 J-379           	928.5355    	0.201       	11              	;
 J-38            	936.85      	1.759       	11              	;
 J-380           	785.4839    	5.997       	11              	;
 J-381           	956.4138    	1.815       	11              	;
 J-382           	872.472     	0.281       	11              	;
 J-384           	865.5309    	5.3         	11              	;
 J-385           	862.8024    	1.088       	11              	;
 J-386           	916.2935    	2.954       	11              	;
 J-387           	982.2441    	0.22        	11              	;
 J-388           	871.1949    	2.126       	11              	;
 J-389           	934.653     	0.822       	11              	;
 J-39            	877.6287    	2.094       	11              	;
 J-390           	931.7991    	0.339       	11              	;
 J-391           	948.8831    	0.957       	11              	;
 J-392           	939.7407    	2.35        	11              	;
 J-393           	1036.368    	2.699       	11              	;
 J-394           	987.7914    	3.271       	11              	;
 J-395           	1265.977    	3.977       	11              	;
 J-396           	1275.458    	1.218       	11              	;
 J-397           	921.1927    	1.029       	11              	;
 J-399           	889.3684    	1.012       	11              	;
 J-4             	915.4558    	1.702       	11              	;
 J-40            	846.25      	2.195       	11              	;
 J-400           	882.0575    	0.392       	11              	;
 J-401           	856.1255    	0.469       	11              	;
 J-402           	857.9173    	2.141       	11              	;
 J-403           	861.4396    	1.469       	11              	;
 J-404           	886.0495    	1.18        	11              	;
 J-405           	901.3066    	0.37        	11              	;
 J-406           	972.3654    	9.262       	11              	;
 J-407           	911.1252    	0.16        	11              	;
 J-408           	904.5205    	0.386       	11              	;
 J-409           	854.1279    	0.122       	11              	;
 J-41            	876.9189    	0.956       	11              	;
 J-410           	897.6112    	0.186       	11              	;
 J-411           	858.3289    	0.366       	11              	;
 J-412           	876.1429    	0.086       	11              	;
 J-413           	901.1375    	1.222       	11              	;
 J-414           	1512.465    	2.154       	11              	;
 J-415           	1302.295    	1.547       	11              	;
 J-416           	888.0784    	0.323       	11              	;
 J-417           	1046.586    	1.066       	11              	;
 J-418           	1107.643    	1.115       	11              	;
 J-419           	910.4126    	0.076       	11              	;
 J-42            	786.3456    	2.941       	11              	;
 J-421           	871.345     	0.196       	11              	;
 J-422           	869.4531    	0.067       	11              	;
 J-423           	923.6902    	0.09        	11              	;
 J-424           	935.8748    	0.639       	11              	;
 J-425           	1109.446    	3.961       	11              	;
 J-426           	913.4969    	1.849       	11              	;
 J-427           	926.033     	0.156       	11              	;
 J-428           	1379.448    	0.694       	11              	;
 J-429           	898.2898    	5.025       	11              	;
 J-43            	904.52      	0.085       	11              	;
 J-430           	764.7927    	0.174       	11              	;
 J-431           	853.9481    	0.314       	11              	;
 J-432           	874.3638    	1.147       	11              	;
 J-433           	899.0455    	1.071       	11              	;
 J-434           	1150.511    	1.813       	11              	;
 J-435           	829.3761    	0.761       	11              	;
 J-436           	918.4193    	3.17        	11              	;
 J-437           	870.3122    	0.067       	11              	;
 J-438           	792.1823    	2.699       	11              	;
 J-44            	880.94      	0.209       	11              	;
 J-440           	938.7907    	0.912       	11              	;
 J-441           	820.6572    	4.078       	11              	;
 J-442           	832.2682    	3.199       	11              	;
 J-444           	997.1141    	0.982       	11              	;
 J-445           	956.1198    	0.901       	11              	;
 J-446           	948.6992    	1.383       	11              	;
 J-447           	856.5505    	0.08        	11              	;
 J-448           	1068.521    	0.077       	11              	;
 J-449           	1065.774    	0.225       	11              	;
 J-45            	866.54      	0.618       	11              	;
 J-450           	922.4603    	0.176       	11              	;
 J-451           	918.6608    	0.069       	11              	;
 J-452           	820.2157    	4.711       	11              	;
 J-453           	996.5876    	3.932       	11              	;
 J-454           	857.2524    	1.537       	11              	;
 J-455           	820.9841    	0.295       	11              	;
 J-456           	808.5272    	3.838       	11              	;
 J-457           	946.2092    	1.503       	11              	;
 J-458           	1218.739    	1.176       	11              	;
 J-46            	888.8423    	2.28        	11              	;
 J-460           	1133.428    	0.087       	11              	;
 J-461           	915.1122    	3.806       	11              	;
 J-462           	1026.175    	1.632       	11              	;
 J-463           	856.3391    	5.984       	11              	;
 J-464           	877.6062    	6.018       	11              	;
 J-465           	1427.467    	4.691       	11              	;
 J-466           	926.8088    	0.442       	11              	;
 J-467           	870.5936    	0.289       	11              	;
 J-469           	943.2756    	0.065       	11              	;
 J-47            	902.789     	0           	                	;
 J-470           	962.9944    	0.222       	11              	;
 J-472           	938.4179    	1.222       	11              	;
 J-473           	775.8064    	2.748       	11              	;
 J-474           	773.0842    	2.56        	11              	;
 J-476           	858.3407    	0.045       	11              	;
 J-477           	913.7922    	1.427       	11              	;
 J-478           	991.0442    	0.284       	11              	;
 J-479           	953.4218    	0.842       	11              	;
 J-48            	895.3137    	4.868       	11              	;
 J-480           	870.0417    	0.961       	11              	;
 J-481           	884.2433    	1.662       	11              	;
 J-482           	1014.038    	0.485       	11              	;
 J-484           	902.2664    	0.298       	11              	;
 J-485           	1044.903    	1.497       	11              	;
 J-486           	952.0574    	1.095       	11              	;
 J-488           	1025.508    	0.955       	11              	;
 J-49            	872.0357    	0.737       	11              	;
 J-490           	939.3114    	7.817       	11              	;
 J-491           	934.173     	5.903       	11              	;
 J-492           	1075.496    	2.853       	11              	;
 J-493           	1279.734    	0.306       	11              	;
 J-494           	878.4167    	0.526       	11              	;
 J-495           	785.1415    	4.885       	11              	;
 J-496           	948.5295    	3.791       	11              	;
 J-497           	857.3401    	0.269       	11              	;
 J-498           	877.9095    	2.671       	11              	;
 J-499           	921.391     	0.32        	11              	;
 J-5             	888.4332    	0           	                	;
 J-50            	875.6846    	2.084       	11              	;
 J-500           	1019.535    	1.321       	11              	;
 J-501           	777.7853    	3.273       	11              	;
 J-502           	836.3597    	7.262       	11              	;
 J-503           	895.2371    	3.386       	11              	;
 J-504           	956.7793    	3.669       	11              	;
 J-505           	1009.101    	0.553       	11              	;
 J-506           	986.8508    	2.042       	11              	;
 J-507           	1009.521    	0.546       	11              	;
 J-508           	929.9955    	2.536       	11              	;
 J-509           	966.9644    	1.092       	11              	;
 J-51            	799.6152    	0.719       	11              	;
 J-510           	998.3074    	1.104       	11              	;
 J-511           	1066.228    	1.358       	11              	;
 J-512           	947.1428    	0.36        	11              	;
 J-513           	1082.846    	0.94        	11              	;
 J-514           	876.5627    	2.027       	11              	;
 J-516           	855.1635    	0.267       	11              	;
 J-517           	897.1501    	0.248       	11              	;
 J-518           	960.6916    	0.755       	11              	;
 J-519           	981.1243    	0.543       	11              	;
 J-52            	808.5374    	5.87        	11              	;
 J-520           	959.3722    	1.885       	11              	;
 J-521           	1074.432    	1.069       	11              	;
 J-522           	967.6119    	0.367       	11              	;
 J-523           	964.1064    	0.202       	11              	;
 J-524           	970.805     	0.408       	11              	;
 J-525           	950.1495    	0.079       	11              	;
 J-526           	851.1884    	1.483       	11              	;
 J-527           	861.5182    	0.875       	11              	;
 J-528           	978.6781    	1.065       	11              	;
 J-53            	828.8377    	2.615       	11              	;
 J-530           	1023.878    	2.314       	11              	;
 J-531           	831.8243    	6.133       	11              	;
 J-532           	953.2395    	3.74        	11              	;
 J-533           	913.3972    	0.627       	11              	;
 J-534           	867.7884    	0.694       	11              	;
 J-535           	900.6401    	0.919       	11              	;
 J-536           	947.0266    	10.54       	11              	;
 J-537           	1019.573    	3.765       	11              	;
 J-538           	938.2294    	0.261       	11              	;
 J-539           	996.8821    	0.252       	11              	;
 J-54            	824.3687    	3.792       	11              	;
 J-540           	937.2123    	0.819       	11              	;
 J-542           	921.0335    	0.984       	11              	;
 J-543           	862.2979    	0.029       	11              	;
 J-544           	870.7891    	0.662       	11              	;
 J-545           	852.1924    	0.32        	11              	;
 J-547           	925.2291    	1.251       	11              	;
 J-548           	981.2397    	2.024       	11              	;
 J-55            	875.8926    	1.706       	11              	;
 J-551           	841.1976    	0.329       	11              	;