

[TITLE]
1987 Lansdale WADISO file converted to EPANET - WMG 2/7/93
Major upgrade to 1993 conditions - WMG 3/27/93
Modified 5/93 by Bruce Herwig.
Represents April 1993 sampling study - WMG 12/4/94
Quality added for the initial values of TOTAL CHLORINE - FA 12/19/94
Pattern corrected - FA 12/14/94
Eliminated long source pipes

[JUNCTIONS]
  1  432.0
  2  335.0
  3  236.0
  4  231.0
  5  240.0
  6  275.0
  7  310.0
  8  315.0
  9  308.0
  10  265.0
  11  265.0
  12  285.0
  13  265.
  14  265.0
  15  260.0
  16  206.0
  17  214.0
  18  198.0
  19  208.0
  20  190.0
  21  182.0
  22  200.0
  23  250.0
  24  230.0
  25  222.0
  26  285.0
  27  250.0
  28  275.0
  29  272.0
  30  290.0
  31  281.0
  32  285.0
  33  293.0
  34  290.0
  35  310.0
  36  325.0
  37  312.0
  38  318.0
  39  327.0
  40  318.0
  41  292.0
  42  290.0
  43  320.0
  44  330.0
  45  326.0
  46  318.0
  47  320.0
  48  345.0
  49  344.0
  50  329.0
  51  330.0
  52  330.0
  53  332.0
  54  324.0
  55  320.0
  56  310.0
  57  328.0
  58  325.0
  59  311.0
  60  348.0
  61  343.0
  62  363.0
  63  355.0
  64  356.0
  65  356.0
  66  341.0
  67  347.0
  68  352.0
  69  349.0
  70  351.0
  71  329.0
  72  330.0
  73  334.0
  74  343.0
  75  352.0
  76  352.0
  77  382.0
  85  383.0
  87  385.0
  88  380.0
  89  372.0
 143  374.0
 144  372.0
 145  372.0
 146  369.0
 147  355.0
 148  349.0
 150  353.0
 151  365.0
 152  364.0
 153  358.0
 154  358.0
 155  362.0
 156  360.0
 157  358.0
 158  365.0
 159  360.0
 163  354.0
 164  352.0
 165  358.0
 166  350.0
 167  346.0
 168  344.0
 169  338.0
 170  334.0
 171  336.0
 172  332.0
 173  318.0
 174  328.0
 175  336.0
 176  344.0
 177  341.0
 178  336.0
 179  330.0
 180  334.0
 181  325.0
 182  336.0
 183  336.0
 184  333.0
 185  336.0
 187  350.0
 188  347.0
 189  352.0
 190  341.0
 191  342.0
 192  344.0
 193  338.0
 194  336.0
 195  366.0
 196  350.0
 197  354.0
 198  344.0
 199  316.0
 200  321.0
 201  312.0
 202  298.0
 203  290.0
 204  280.0
 205  284.0
 206  276.0
 207  304.0
 208  300.0
 209  294.0
 210  288.0
 211  284.0
 212  302.0
 213  300.0
 214  322.0
 215  332.0
 216  357.0
 217  288.0
 218  292.0
 219  278.0
 220  280.0
 221  294.0
 222  310.0
 223  312.0
 224  306.0
 225  306.0
 226  320.0
 227  328.0
 228  316.0
 229  308.0
 230  308.0
 231  312.0
 232  306.0
 233  306.0
 234  322.0
 235  324.0
 236  326.0
 237  322.0
 238  340.0
 239  341.0
 240  300.0
 241  333.0
 242  320.0
 243  312.0
 244  288.0
 245  270.0
 246  280.0
 247  282.0
 248  302.0
 249  328.0
 250  282.0
 251  324.0
 252  278.0
 253  268.0
 254  280.0
 255  260.0
 256  319.0
 257  321.0
 258  342.0
 259  256.0
 260  240.0
 261  210.0
 262  226.0
 263  202.0
 264  244.0
 265  266.0
 266  242.0
 267  220.0
 268  240.0
 269  198.0
 270  198.0
 271  280.0
 272  320.0
 273  310.0
 274  324.0
 275  310.0
 276  250.0
 277  280.0
 278  342.0
 279  260.0
 280  276.0
 281  270.0
 282  260.0
 283  256.0
 284  244.0
 285  216.0
 286  240.0
 287  240.0
 288  240.0
 289  276.0
 290  230.0
 291  230.0
 292  204.0
 293  340.0
 294  322.0
 295  320.0
 296  318.0
 297  298.0
 298  290.0
 299  320.0
 300  336.0
 301  304.0
 302  322.0
 303  322.0
 304  300.0
 305  301.0
 306  336.0
 307  328.0
 308  310.0
 309  301.0
 310  348.0
 311  284.0
 312  280.0
 313  280.0
 314  370.0
 315  356.0
 316  382.0
 317  316.0
 318  300.0
 319  280.0
 320  322.0
 321  328.0
 322  318.0
 323  284.0
 324  260.0
 325  264.0
 326  342.0
 327  344.0
 328  362.0
 329  362.0
 330  354.0
 331  344.0
 332  342.0
 334  372.0
 335  378.0
 336  384.0
 337  428.0
 428  282.0
 429  282.0
 430  337.0
 431  340.0
 432  341.0
 433  232.0
 434  225.0
 435  260.0
 436  270.0
 437  275.0
 438  276.0
 439  343.0
 440  330.0
 441  282.0
 444  340.0
 445  370.0
 446  264.0
 447  275.0
 448  270.0
 449  342.0
 450  341.0
 453  335.0
 454  290.0
 455  356.0
 457  299.
 458  290.
 459  289.
 460  328.
 461  270.
 462  263.
 463  265.
 500  340.
 501  300.
 502  330.
 504  330.
 505  310.
 506  300.
 507  330.
 508  330.
 509  320.
 510  320.
 591  444.
 ;594  560.
 615  350.
 616  280.
 617  250.
 618  275.
 619  280.
 620  240.
 621  250.
 622  230.
 623  240.
 624  250.
 625  200.
 626  260.
 627  250.
 628  260.
 629  260.
 630  320.
 ;631  280.
 ;632  300.
 ;633  400.
 634  200.
 635  428.
 636  327.
 637  309.
 638  315.
 639  277.
 640  350.
 641  315.
 700  336.

[DEMANDS]
 1 -1.  14     ; Keystone Pit
 2 0.0
 3  10.0
 4  10.0
; 5 -70.   2
 6 0.0
 7 0.0
 8 3.0
 9 3.0
 10 3.0
 11 3.0
 12 3.0
 14 3.0
 15 3.0
 16 3.0
 17 3.0
 18 9.0
 19 -1.0  10        ;well np17
 20 9.0
 21 1.0
 22 9.0
 23 9.0
 24 9.0
 25 9.0
 26 3.0
 27 0.0
 28  34.0
 29 5.0
 30 5.0
 31  28.0
 32 5.0
 33  11.0
 34  25.0
 35 5.0
 36  30.0
 37 3.0
 38 4.0
 39 9.0
 40 9.0
 41  29.0
; 42 -70.    2
 43 2.0
 44 2.0
 45 2.0
 46 -54.5    2      ;well l25
 47 2.0
 48  12.0
 49 5.0
 50 5.0
 51 5.0
 52 -67.4    2      ;well l10
 53 6.0
 54 6.0
; 55 -89.0  2
 56 5.0
 57  33.0
 58  14.0
 59 0.0
 60  14.0
 61  28.0
 62  10.0
 63 7.0
 64 7.0
 65  15.0
 66  12.0
 67 9.0
 68 5.0
 69 5.0
 70 5.0
 71 2.0
 72 2.0
 73  29.0
 74 -29.5    2      ;well l23
 75 5.0
 76 5.0
 77 8.0
 85 4.0
 87 4.0
 88 4.0
 89 4.0
 143 6.0
 144 8.0
 145 8.0
 146 8.0
 147 8.0
 148 9.0
 150 8.0
 151 6.0
 152 6.0
 153 6.0
 154  19.0
 155 6.0
 156 6.0
 157 6.0
 158 8.0
 159 -1.   12       ;hillcrest transfer in
 163  10.0
 164 6.0
 165  15.0
 166 4.0
 167 4.0
 168 4.0
 169 4.0
 170 4.0
 171 5.0
 172 5.0
 173  23.0
 174 5.0
 175 5.0
 176  92.0
 177 5.0
 178 5.0
 179 4.0
 180 4.0
 181 4.0
 182 7.0
 183 4.0
 184 4.0
 185 7.0
 187  10.0
 188 7.0
 189  28.0
 190  10.0
 191 5.0
 192 5.0
 193 4.0
 194 4.0
 195 7.0
 196  23.0
 197  60.0
 198  28.0
 199 5.0
 200 3.0
 201 3.0
 202 3.0
 203 3.0
 204 3.0
 205 -1.0    11     ;well np21
 206 3.0
 207 -62.8    2     ;well np12
 208 1.0
 209 1.0
 210 1.0
 211 1.0
 212 1.0
 213 9.0
 214 7.0
 215  -1.   15   ;  Forest Park inflow (old 11.0)
 216 30.
 217  14.0
 218 9.0
 219 9.0
 220 3.0
 221 3.0
 222 3.0
 223 3.0
 224 4.0
 225 4.0
 226  15.0
 227 5.0
 228 5.0
 229 5.0
 230  21.0
 231 4.0
 232 5.0
 233 -50.0    2     ;well l26
 234 5.0
 235 5.0
 236 5.0
 237 0.0
 238 5.0
 239 1.0
 240 225.0
 241 5.0
 242 0.0
 243 4.0
 244 2.0
 245 2.0
 246 -170.0     4   ;well np4
 247 2.0
 248 2.0
 249 4.0
 250 4.0
 251 4.0
 252 4.0
 253 4.0
 254  25.0
 255 4.0
 256 5.0
 257  24.0
 258  25.0
 259 5.0
 260 5.0
 261 5.0
 262 2.0
 263 2.0
 264  10.0
 265 2.0
 266 2.0
 267 -279.5    2    ;well np5
 268 2.0
 269 7.0
 270 2.0
 271  17.0
 272 0.0
 273 0.0
 274 7.0
 275 7.0
 276 2.0
 277  12.0
 278 6.0
 279 2.0
 280  13.0
 281  32.0
 282 2.0
 283 2.0
 284  30.0
 285 7.0
 286 7.0
 287 2.0
 288 -155.0     6   ;well np31
 289 2.0
 290 2.0
 291 7.0
 292 -192.2     3   ;well np14
 293 2.0
 294 2.0
 295 2.0
 296 2.0
 297 -208.3     5   ;well np20
 298 7.0
 299 7.0
 300 7.0
 301  17.0
 302 2.0
 303 2.0
 304 2.0
 305 9.0
 306 2.0
 307 2.0
 308 2.0
 309 1.0
 310 1.0
 311 1.0
 312 1.0
 313 -271.2      8  ;well np48
 314 1.0
 315 1.0
 316 1.0
 317 1.0
 318 1.0
 319 -116.7      6  ;well np26
 320 1.0
 321 1.0
 322 1.0
 323 100.0
 324 100.0
 325 1.0
 326 1.0
 327 1.0
 328 1.0
 329 1.0
 330 1.0
 331 1.0
 332 5.0
 334 8.0
 335 2.0
 336 25.0
 337 2.0
 428 7.0
 429 -50.0     2    ;well np11
 430 4.0
 431 5.0
 432 4.0
 433 5.0
 434 8.0
 435  75.0
 436 8.0
 437 -83.3      2   ;well np33
 438 0.
 439  22.0
 440 8.0
 441 2.0
 444 4.0
 445  27.0
 446  39.0
 447 2.0
 448 7.0
 449  25.0
 450 1.0
 453  13.0
 454  27.0
 455 5.0
  13 7.
 457 7.
 458 7.
 459 7.
 460 0.
 461 2.
 462 2.
 463 2.
 500 16.     ; old 5.
 501 5.
 502 5.
 504 5.
 505 5.
 506 5.
 507 5.
 508 5.
 509 5.
 510 5.
 591 1.0       13   ;lawn ave tank souderton demand
 ;594 -1.0      14   ;keystone import
 615 10.
 616 10.
 617 4.
 618 4.
 619 4.
 620 4.
 621 4.
 622 4.
 623 4.
 624 -213.9     7   ;well np39
 625 230.
 626 4.
 627 4.
 628 4.
 629 4.
 630 150.
 ;633 -1.       15   ;forest park wtp
 635 -86.3      9   ;well np69
 640 0.
 641 0.

[TANKS]
;1   570.
;160 360. 120. 15. 126.  30.
186 444.  29.0  0.  42. 100.    ;2 mg elevated tank
338 444.  32.6  0.  42.  66.    ;lawn ave tank
; 19 108.
;205 184.

[PIPES]
       1        1        2     4005       16      120
       2        2        3   4805.2       16      120
       3        5        4    848.5       12      120
       4        4        3     1900       12      120
       5        3        6   1603.1       16      120
       6        6        7   2012.5       16      120
       7        7        8     3000       16      120
       8        8        9      800       16      120
       9        9       10     2100       12      120
      10       10       11     2100       12      120
      11        9       12   1236.9       12      120
      12       10       15   1802.8        8      120
      13       14       15    538.5       12      120
      14       15       16      500       12      120
      15       11       17   1708.8       12      120
      16       17       16     1118       12      120
      17       16       24   1769.2       12      120
      18       24       25    640.3       12      120
      19       25       26   1746.4        8      100
      20       26       27   1612.5        8      120
      21       27       28     1100       12      120
      22       27       29      900       12      120
      23       26       30   1726.3        8      100
      24       30       29     1700       16      120
      25       31       30     2700       16      120
      26      438       31     1500       12      120
      27       31       32     2900       16      120
      28       32       33   1702.9       12      120
      29       33       34    707.1        6      120
      30       33      256   2701.9       12      120
      31       17       18    984.9       12      120
      32       19       18    509.9        6      120
      33       18       20   2109.5       12      120
      34       20       21     1000        8      120
      35       20       22   1802.8       12      120
      36       17       23     1300        8      120
      37       23       22   2901.7        8      120
      38       22      433     1500       12      120
      39      618      436     1800       12      120
      40      436      435      800       12      120
      41      435      434      800       12      120
      42      434      433   2282.5       12      120
      43      433       32     3000       12      120
      44       29       38     2800       12      100
      45       30       35     1118       10      100
      46       35       36   1612.5        8      100
      47       36       37      700        8      120
      48       37       38   1403.6        8      120
      49       38       39     1800       12      100
      50       37      453    948.7        8      120
      51       39       40     2100        8      120
      52       39       48      900       12      100
      53       48       49      500       12      100
      54       48       47   1664.3        8      120
      55       41       40      900        8      120
      56       42       41    316.2        6      120
      57       41       43     1118        8      120
      58       47       43    538.5        8      120
      59       43       44    860.2        6      120
      60       45       43    412.3        8      120
      61       46       45      300        6      120
      62       45       73     1044        8      120
      63       47       71   1334.2        6      120
      64       74       73    360.6        8      120
      65       73       72      400        8      120
      66       72       71      300        8      120
      67       71       70     1100        6      100
      68       70       69      400        8      100
      69       49       69     1300        8      100
      70       69       68      900        6      100
      71       68       67      400        6      100
      72       51       67      600        6      100
      73       52       51      200        6      100
      74       51       50      300        6      100
      75       49       50      900        8      100
      76       50       53     1000        8      100
      77       53       54    509.9        6      120
      78       55       54    223.6        6      120
      79       54       56     1000        6      120
      80       53       57   1104.5        8      100
      81       57       58      300        8      100
      82       58       59     2500        6      120
      83       58       60      700        8      100
      84       60       61      800        8      100
      85       61       77   2302.2        8      100
      86       77       85      700        8      100
      87       85       87    282.8        8      100
      88       87       88      500        8      100
      90       88       89    905.5        8      100
      92       61       62      900        8      100
      93       62       63      700        8      100
      94       63       64      100        8      100
      95       64       65      300        4      100
      96       66       65      800        4      100
      97       57       66     1000        4      100
      98      148       66     1600        4      100
      99       67      148      500        4      100
     100       65       76     1600        4      100
     101       76       75      600        4      100
     102       75       70      800        6      100
     103       70      189     1100        8      100
     104      189      182    316.2        8      100
     105      183      182     1300       16      120
     106      184      183      200       16      120
     107      185      184      600       16      120
     108      186      700      300       12      120
     109      185      187    806.2       12      120
     110      187      188      600       12      120
     111       64      188     1200       12      120
     112      188      163      350       12      120
     113      159      163      800       12      120
;     114      160      159    223.6        8      100
     116      159      158    854.4        8      100
     117      158      144      800        4      100
     118      143      144      300        6      100
     119      144      145      300        6      100
     120      145      146      600        6      100
     121      146      147     1400        6      100
     122      147      150    905.5        6      100
     123      150      151      728        6      100
     124      151      152      300        8      100
     125      146      156     1500        4      100
     126      157      156      900        8      100
     127      156      155      500        8      100
     128      155      154      600        8      100
     129      163      164    282.8       16      120
     130      164      165     1200       16      120
     131      165      154      800       16      120
     132      165      166      700        4      100
     133      166      167      600        4      100
     134      167      168      200        4      100
     135      154      168      700        8      100
     136      154      153     1000       16      120
     137      153      152    509.9       16      120
     138      168      169      300        8      100
     139      430      170      500        4      100
     140      166      432      900        4      100
     141      432      430      500        4      100
     142      169      439      400        8      100
     143      439      171     1000        8      100
     144      171      172      400        8      100
     145      172      235   1902.6        8      100
     146      227      235      400        8      100
     147      228      234     1253        6      100
     148      234      235      200        6      100
     149      232      234   1303.8        6      100
     150      233      232    316.2        6      100
     151      232      229    509.9        6      100
     152      173      172     1300        8      100
     153      174      173      900        8      100
     154      175      174      300        6      100
     155      177      175      700        6      100
     156      178      177      400        6      100
     157      179      178      400        6      100
     158      180      179      600        6      100
     159      181      180      900        6      100
     160      190      180      900        6      100
     161      189      190      800        8      100
     162      193      192     2100        8      100
     163      194      193      200       16      120
     164      182      194      200       16      120
     165      182      181      600        8      100
     166      181      173   2039.6        8      100
     167      181      440     1300        4      100
     168      440      431      900        6      100
     169      431      430      200        4      100
     170      231      230   2701.9       12      120
     171      230      229   1513.3       12      120
     172      229      228      300       12      120
     173      228      227   1315.3       12      120
     174      226      227   1702.9       12      100
     175      225      226     1300       12      120
     176      224      225      500       12      120
     177      637      231     1500       12      120
     178      224      221      800       12      120
     179      221      220      800       12      120
     180      222      221     1005        8      120
     181      223      222      900        8      120
     182      200      223   2002.5       12      120
     183      201      200   2549.5       12      120
     184      202      201    948.7        8      120
     185      207      202      728        6      120
     186      203      202    608.3        8      120
     187      204      203    707.1       12      120
     188      205      204      300       24      120
     189      203      206     1118        8      120
     190      201      208     1118       12      120
     191      208      209   1140.2       12      120
     192      208      210    316.2       12      120
     193      210      211      500       12      120
     194      211      212    943.4       16      120
     195      212      213   1208.3       12      120
     196      212      214    943.4       16      120
     197      510      217   2700.0       12      120
     198      217      218    538.5       12      120
     199      218      219      500       12      120
     200      214      215   3420.5       16      120
     201      500      215   1700.0       24      120
     202      200      198      900       16      120
     203      198      199   2630.6       12      120
     204      197      198   3634.6       16      120
     205      195      197     1400       16      120
     206      195      196      400       12      120
     207      152      195     1300       16      120
     208      176      175     1100        6      100
     209      192      176     2502        6      100
     210      190      455      700        8      100
     211      191      192      100        8      100
     212      192      236   3701.4       16      120
     213      236      238   2102.4       16      120
     214      238      241      600       16      120
     215      241      239     1100       12      120
     216      239      240     2000       12      120
     217      237      236      200        6      120
     218      241      242    806.2        8      120
     219      242      243     1200       16      120
     220      243      244    608.3       16      120
     221      244      245   1264.9       16      120
     222      246      245      300        6      120
     223      245      247   1019.8       16      120
     224      247      248   1726.3        8      100
     225      248      249     2508        8      100
     226      249      250   2906.9        8      120
     227      250      251   1811.1        8      120
     228      251      252   1603.1       12      120
     229      250      253   1236.9        8      120
     230      253      254    412.3        8      120
     231      255      253    670.8        8      120
     232      256      255   2807.1        8      120
     233      256      257      200       12      120
     234      257      258      600       12      120
     235      257      454   2102.4       12      120
     236      259      260     1400       12      120
     237      259      261   1414.2       12      120
     238      270      269   1029.6       16      120
     239      269      261     1800       16      120
     240      261      262     1500       16      120
     241      262      264     1300       16      120
     242      264      265   1303.8       12      120
     243      264      266   1081.7       16      100
     244      267      266    282.8        6      120
     245      266      268      500       16      100
     246      268      441   1931.3       16      100
     247      247      441   1627.9       16      120
     248      441      320   3111.3       16      120
     249      262      263   1303.8       12      120
     250      617      270   3200.0       12      120
     251      272      271   1345.4        8      120
     252      273      272   3157.5        8      120
     253      274      273   1414.2        8      120
     254      275      274     1005        8      100
     255      300      275   1341.6        8      100
     256      298      300   1902.6        8      100
     257      428      298   1431.8        8      120
     258      429      428      200        8      120
     259      428      280   2418.7        8      120
     260      281      280   1403.6        8      120
     261      280      279   1216.6        8      120
     262      279      276     1500        8      120
     263      446      275   2473.9        8      120
     264      276      271     5016       12      120
     265      277      276    943.4       12      120
     266      278      277     3200       12      120
     267      282      278   1802.8        8      120
     268      282      281      400        8      120
     269      283      282   1711.7       12      120
     270      284      283    905.5       12      120
     271      285      284    905.5       12      120
     272      286      285     1253       12      120
     273      287      286    223.6        8      120
     274      288      287      300        6      120
     275      287      289      781       12      120
     276      289      290     1500       12      120
     277      291      290   1403.6        8      120
     278      292      291    316.2        6      120
     279      291      286   2213.6        8      120
     280      293      447     2300        8      120
     281      294      293      800        8      120
     282      296      298     1118        8      100
     283      297      296    412.3        8      120
     284      296      295      500        8      100
     285      295      294    824.6        8      120
     286      307      293   1280.6        8      120
     287      306      307      600        8      120
     288      298      299   1627.9       12      120
     289      295      301     1000        8      120
     290      302      301     1000        8      120
     291      302      294    824.6        8      120
     292      303      302      300        8      120
     293      304      303     1063        8      120
     294      305      306   1303.8       12      120
     295      304      305      800       12      120
     296      308      304      500       12      120
     297      309      308     1700       12      120
     298      310      309     2816       12      120
     299      311      310     1300       12      120
     300      312      311    640.3       16      120
     301      313      312    223.6        6      120
     302      314      312   1431.8        8      120
     303      315      314      800        8      120
     304      316      315      900        8      120
     305      317      316   3006.7        8      120
     306      318      317   1019.8        8      120
     307      319      318      200        8      120
     308      320      321   2360.1       12      120
     309      321      322    583.1       12      120
     310      322      323   2302.2       12      120
     311      322      324   1280.6       12      120
     312      324      325   1838.5       12      120
     313      450      326     4100       16      120
     314      326      327    707.1       16      120
     315      327      328     3200       16      120
     316      328      334      900       16      120
     317      334      337   2901.7       16      120
     319      334      335      300       16      120
     320      335      336      900       16      120
     321      328      329    223.6       12      120
     322      329      330      500       12      120
     323      330      331    640.3       12      120
     324      331      332   2109.5       12      120
     326      337      591      781       16      120
     327      170      171      400        4      100
     328      158      157      700        8      100
     525      226      444   1897.4        8      100
     526      278      445     2700       12      120
     527      276      446   1552.4        8      120
     528      447      448     1200        8      120
     529      447      282     1200        8      120
     530      320      450     2500       16      120
     531      450      449     2600        8      100
     534      453       40     1077        8      120
     535      454      259     2502       12      120
     536      455      191      700        8      120
     537      455       73      800        6      120
     542      268      248     2400        8      120
     543       12       13      900       12      120
     544       13       14      950       12      120
     545      438      457      600       12      120
     546      457      255     2200        8      120
     547      457      458      600       12      120
     548      458       36     1850        8      120
     549      458      459     2950       12      120
     550      459       41     2150        8      120
     551      460      636     2100       12      120
     552      192      460     1100       16      120
     553       28      461      750       12      120
     554      461      462      950       12      120
     555      462      463      450       12      120
     556      463       25      750       12      120
     597      338      591       50       16      120
    ; 599      594        1    12000       16      120
     600      501      638     1000       24      120
     602      502      504      600       24      120
     603      504      219     5300       16      120
     604      218      505     3000        8      120
     605      505      502     1700        8      120
     606      505      506      800        8      120
     607      506      509      700        8      120
     608      509      510     2800        8      120
     609      509      507     2400        8      120
     610      506      507     1600        8      120
     611      507      508      400        8      120
     612      501      508     2000        8      120
     613      508      215     1200        8      120
     614      510      214      800       12      120
     615      337      635      300       12      120
     616      219      220      500       12      120
     711      445      615     4000       16      120
     712      615      616     5000       16      120
     713      271      617      800       12      120
     714      617      619     4000       16      120
     715      619      620     9000       16      120
     716      619      639     4000       16      120
     717      618      437      300       12      120
     718      620      623     2400        8      120
     719      620      624      800       12      120
     720      620      621      500       12      120
     721      621      622     2400       12      120
     722      622      623     1000        8      120
     723      623      625     1500        8      120
     724      625      626     2400        8      120
     725      626      627     4800       12      120
     726      627      628     4000        8      120
     727      628      629     1200       12      120
     728      629      634     3200        8      120
     729      176      630     1400        6      120
     730      174      630     1700        6      120
     ;731      631      215     6400       24      120
     ;732      632      631    13900       30      120
     ;733      633      632     3800       36      120
     734      501      500     2000       24      120
     735      216      500     1200       16      120
     736      270      639     3050       16      120
     737      243      252     1500       12      120
     738      251      636     1900       12      120
     739       44      636     1400        8      120
     740      636      459     1200       12      120
     741      637      224     1100       12      120
     742      196      640       10        6      120
     743      641      638       50        6      120
     744      502      638      900       24      120
     745      229      637     2850       12      120
     746      639      618     4000       16      120
     747       700     185      428         12      120
