[TITLE]


[JUNCTIONS]
;ID              	Elev        	Demand      	Pattern         
 J-1             	1071.081    	5.33        	1               	;
 J-10            	1068.376    	0.52        	1               	;
 J-100           	1074.974    	0           	                	;
 J-101           	1221.245    	1.22        	1               	;
 J-102           	1508.673    	0           	                	;
 J-103           	1429.805    	0.07        	1               	;
 J-104           	1587.75     	4.32        	1               	;
 J-105           	1575.75     	5.58        	1               	;
 J-106           	1580.993    	0.43        	1               	;
 J-107           	1569.185    	1.45        	1               	;
 J-108           	1147.631    	0.5         	1               	;
 J-109           	1126.155    	0.38        	1               	;
 J-11            	1058.139    	1.18        	1               	;
 J-110           	1153.104    	7.58        	1               	;
 J-111           	1388.201    	5.8         	1               	;
 J-112           	1065.211    	0           	                	;
 J-113           	1064.863    	3.5         	1               	;
 J-115           	1149.061    	0.53        	1               	;
 J-116           	1137.122    	2.21        	1               	;
 J-117           	1062.99     	0.31        	1               	;
 J-118           	1072.827    	0.22        	1               	;
 J-119           	1092.163    	1.53        	1               	;
 J-12            	1406.75     	2.56        	1               	;
 J-120           	1162.898    	1.16        	1               	;
 J-121           	1264.904    	4.98        	1               	;
 J-123           	1567.716    	4.62        	1               	;
 J-124           	1441.886    	3.524       	1               	;
 J-125           	1198.152    	0.93        	1               	;
 J-126           	1076.755    	0           	                	;
 J-127           	1571.917    	2.12        	1               	;
 J-128           	1346.185    	2.68        	1               	;
 J-129           	1413.029    	1.36        	1               	;
 J-13            	1096.037    	4.31        	1               	;
 J-130           	1203.198    	0           	                	;
 J-131           	1248.121    	0.32        	1               	;
 J-132           	1119.873    	0.19        	1               	;
 J-133           	1504.543    	0.8         	1               	;
 J-134           	1058.021    	0.92        	1               	;
 J-135           	1058.515    	0.06        	1               	;
 J-136           	1183.78     	2.59        	1               	;
 J-137           	1177.659    	0.95        	1               	;
 J-138           	1067.554    	2.87        	1               	;
 J-139           	1057.517    	0.35        	1               	;
 J-14            	1024.043    	2.15        	1               	;
 J-140           	1129.844    	3.22        	1               	;
 J-141           	1130.417    	0.83        	1               	;
 J-142           	1058.31     	0.34        	1               	;
 J-143           	1065.192    	0.55        	1               	;
 J-144           	1127.638    	1.84        	1               	;
 J-145           	1197.021    	0.53        	1               	;
 J-146           	1099.407    	2.67        	1               	;
 J-148           	1068.099    	1.85        	1               	;
 J-149           	1153.564    	0           	                	;
 J-15            	1051.995    	2.87        	1               	;
 J-150           	1288.209    	2.06        	1               	;
 J-151           	1318.119    	0.54        	1               	;
 J-152           	1056.644    	0.95        	1               	;
 J-153           	1056.569    	0.13        	1               	;
 J-154           	1057.541    	0.44        	1               	;
 J-155           	1058.644    	2.52        	1               	;
 J-157           	1105.371    	3.3         	1               	;
 J-158           	1202.456    	0.76        	1               	;
 J-159           	1147.312    	3.97        	1               	;
 J-16            	1152.944    	2.42        	1               	;
 J-160           	1145.5      	1.21        	1               	;
 J-161           	1200.013    	0.05        	1               	;
 J-162           	1124.59     	0           	                	;
 J-163           	1105.802    	1.46        	1               	;
 J-164           	1204.589    	0.92        	1               	;
 J-165           	1021.206    	1.2         	1               	;
 J-167           	1429.573    	1.43        	1               	;
 J-168           	1429.568    	0.99        	1               	;
 J-169           	1102.09     	1.53        	1               	;
 J-17            	1192.868    	2.14        	1               	;
 J-170           	1130.223    	0.19        	1               	;
 J-171           	1172.93     	0           	                	;
 J-172           	1279.974    	1.6         	1               	;
 J-173           	1097.652    	2.6         	1               	;
 J-174           	1141.824    	0.47        	1               	;
 J-175           	1135.082    	0           	                	;
 J-176           	1252.222    	0           	                	;
 J-177           	1427.698    	2.4         	1               	;
 J-178           	1486.797    	1.35        	1               	;
 J-179           	1010.7      	2.83        	1               	;
 J-18            	1386.946    	1.78        	1               	;
 J-181           	1043.433    	3.59        	1               	;
 J-182           	1056.93     	0.65        	1               	;
 J-183           	1439.107    	2.26        	1               	;
 J-184           	1488.203    	1.11        	1               	;
 J-185           	1077.517    	0.11        	1               	;
 J-186           	1119.229    	0.32        	1               	;
 J-187           	1129.605    	0.16        	1               	;
 J-189           	1039.269    	3.14        	1               	;
 J-19            	1392.715    	1.47        	1               	;
 J-190           	1166.305    	0           	                	;
 J-193           	1528.189    	0           	                	;
 J-194           	1074.669    	0.58        	1               	;
 J-195           	1444.545    	1.6345      	1               	;
 J-196           	1080.45     	1.15        	1               	;
 J-197           	1073.844    	0           	                	;
 J-198           	1036.326    	0           	                	;
 J-199           	1291.9      	0           	                	;
 J-2             	1054.599    	1.97        	1               	;
 J-20            	1241.298    	4.41        	1               	;
 J-200           	1285.613    	0.51        	1               	;
 J-201           	1279.724    	0           	                	;
 J-202           	1183.7      	0.56        	1               	;
 J-203           	1056.254    	2.76        	1               	;
 J-204           	1068.748    	0.91        	1               	;
 J-205           	1210.601    	0.7         	1               	;
 J-206           	1205.09     	0.25        	1               	;
 J-207           	1129.987    	0.7         	1               	;
 J-208           	1351.999    	0.88        	1               	;
 J-21            	1032.342    	6.55        	1               	;
 J-211           	1205.014    	1.37        	1               	;
 J-214           	1061.806    	2.33        	1               	;
 J-215           	1152.791    	1.61        	1               	;
 J-216           	1064.632    	1.44        	1               	;
 J-217           	1070.799    	0.71        	1               	;
 J-22            	1294.4      	1.6         	1               	;
 J-220           	1248.373    	1.33        	1               	;
 J-221           	1216.259    	0.59        	1               	;
 J-222           	1186.557    	0.52        	1               	;
 J-223           	1204.61     	1.13        	1               	;
 J-226           	1065.469    	0.29        	1               	;
 J-227           	1069.408    	0.14        	1               	;
 J-228           	1229.101    	3.6         	1               	;
 J-229           	1225.396    	2.03        	1               	;
 J-23            	1377.1      	6.31        	1               	;
 J-230           	1087.033    	4.41        	1               	;
 J-232           	1445.987    	1.64        	1               	;
 J-233           	1493.049    	1.69        	1               	;
 J-234           	1117.512    	1.31        	1               	;
 J-235           	1118.181    	0.18        	1               	;
 J-236           	1202.87     	2.11        	1               	;
 J-238           	1237.988    	1.5         	1               	;
 J-239           	1256.726    	0.89        	1               	;
 J-24            	1785.802    	8.16        	1               	;
 J-240           	1072.746    	2.86        	1               	;
 J-241           	1082.885    	2.18        	1               	;
 J-242           	1069.307    	3.52        	1               	;
 J-244           	1191.356    	3.51        	1               	;
 J-245           	1112.655    	0.46        	1               	;
 J-246           	1023.523    	1.9         	1               	;
 J-247           	1023.421    	3.18        	1               	;
 J-248           	1188.372    	0           	                	;
 J-25            	1104.098    	0           	                	;
 J-254           	1189.267    	2.43        	1               	;
 J-255           	1021.65     	2.81        	1               	;
 J-257           	1009.111    	1.27        	1               	;
 J-259           	1072.108    	0.39        	1               	;
 J-26            	1389.478    	14.77       	1               	;
 J-260           	1078.588    	0.77        	1               	;
 J-261           	1056.644    	0.97        	1               	;
 J-263           	1122.059    	1.85        	1               	;
 J-264           	1161.748    	0.81        	1               	;
 J-266           	1037.577    	2.74        	1               	;
 J-268           	1059.658    	0.66        	1               	;
 J-269           	1495.781    	0.77        	1               	;
 J-27            	1072.445    	0           	                	;
 J-270           	1494.858    	0.26        	1               	;
 J-271           	1051.325    	0.39        	1               	;
 J-272           	1100.14     	4.16        	1               	;
 J-273           	1150.049    	0.93        	1               	;
 J-274           	1155.51     	2.99        	1               	;
 J-275           	1147.047    	1.28        	1               	;
 J-276           	1069.114    	4.21        	1               	;
 J-277           	1061.786    	0.46        	1               	;
 J-278           	1565.35     	1.91        	1               	;
 J-279           	1447.919    	1.19        	1               	;
 J-28            	1045.719    	1.92        	1               	;
 J-280           	1369.803    	2.25        	1               	;
 J-281           	1500.624    	1.9         	1               	;
 J-282           	1539.799    	0.18        	1               	;
 J-285           	1392.287    	3.08        	1               	;
 J-286           	1388.486    	1.89        	1               	;
 J-287           	1054.072    	0.83        	1               	;
 J-288           	1073.285    	0.32        	1               	;
 J-289           	1080.747    	0.43        	1               	;
 J-29            	1049.852    	1.4         	1               	;
 J-290           	1204.434    	0.8492      	1               	;
 J-291           	1304.815    	0           	                	;
 J-292           	1077.288    	5.28        	1               	;
 J-293           	1070.779    	2.87        	1               	;
 J-294           	1140.796    	4.99        	1               	;
 J-295           	1164.726    	3.81        	1               	;
 J-296           	1099.822    	1.98        	1               	;
 J-297           	1129.129    	0.59        	1               	;
 J-298           	1404.226    	2.2         	1               	;
 J-299           	1425.229    	0.97        	1               	;
 J-3             	1169.32     	1.16        	1               	;
 J-30            	1319.85     	0           	                	;
 J-300           	1048.2      	0.68        	1               	;
 J-301           	1046.867    	0.38        	1               	;
 J-302           	1067.571    	2.57        	1               	;
 J-303           	1252.386    	5.63        	1               	;
 J-305           	1135.044    	1.02        	1               	;
 J-306           	1127.437    	2.56        	1               	;
 J-308           	1070.698    	0.55        	1               	;
 J-309           	1058.696    	0.42        	1               	;
 J-31            	1077.606    	2.64        	1               	;
 J-310           	1198.035    	2.99        	1               	;
 J-312           	1182.875    	3.31        	1               	;
 J-313           	1044.666    	0.67        	1               	;
 J-314           	1126.636    	3.66        	1               	;
 J-315           	1044.993    	0.49        	1               	;
 J-316           	1390.2      	1.61        	1               	;
 J-317           	1145.734    	2.02        	1               	;
 J-318           	1165.883    	0.23        	1               	;
 J-319           	1058.192    	0.55        	1               	;
 J-32            	1606.786    	2.27        	1               	;
 J-320           	1059.04     	0.42        	1               	;
 J-321           	1142.273    	0.61        	1               	;
 J-322           	1128.733    	0.41        	1               	;
 J-323           	1057.657    	3.39        	1               	;
 J-324           	1061.706    	0.64        	1               	;
 J-325           	1074.253    	2.03        	1               	;
 J-326           	1042.269    	6.2         	1               	;
 J-327           	1067.655    	2.55        	1               	;
 J-328           	1073.044    	1.92        	1               	;
 J-329           	1101.51     	1.46        	1               	;
 J-33            	1200.488    	0.73        	1               	;
 J-330           	1044.267    	0.27        	1               	;
 J-331           	1044.343    	0.4         	1               	;
 J-332           	1054.791    	0.51        	1               	;
 J-333           	1048.901    	3.49        	1               	;
 J-334           	1048.55     	2.48        	1               	;
 J-337           	1132.96     	0.5         	1               	;
 J-338           	1061.017    	0.3         	1               	;
 J-339           	1046.704    	0.42        	1               	;
 J-34            	1352.228    	4.65        	1               	;
 J-340           	1346.75     	1.74        	1               	;
 J-341           	1069.635    	0.5         	1               	;
 J-342           	1053.391    	0.69        	1               	;
 J-343           	1249.377    	5.53        	1               	;
 J-344           	1117.6      	1.38        	1               	;
 J-345           	1105.447    	6.74        	1               	;
 J-346           	1116.454    	0.24        	1               	;
 J-347           	1056.644    	0.75        	1               	;
 J-348           	1059.368    	0.39        	1               	;
 J-349           	1128.835    	8.56        	1               	;
 J-35            	1117.6      	11.06       	1               	;
 J-351           	1090.781    	4.49        	1               	;
 J-352           	1117.003    	0.93        	1               	;
 J-353           	1346.836    	0.69        	1               	;
 J-354           	1152.567    	2.95        	1               	;
 J-358           	1138.869    	1.56        	1               	;
 J-359           	1123.806    	1.29        	1               	;
 J-36            	1264.814    	0.88        	1               	;
 J-360           	1240.607    	0.92        	1               	;
 J-361           	1223.806    	0.39        	1               	;
 J-362           	1481.73     	2.06        	1               	;
 J-363           	1454.061    	0.39        	1               	;
 J-364           	1383.052    	4.04        	1               	;
 J-365           	1467.546    	2.16        	1               	;
 J-368           	1258.234    	1.03        	1               	;
 J-369           	1183.654    	0.22        	1               	;
 J-37            	1132.336    	3.5         	1               	;
 J-370           	1096.206    	2.19        	1               	;
 J-371           	1578.333    	1.02        	1               	;
 J-372           	1074.699    	0.88        	1               	;
 J-373           	1071.683    	0.3         	1               	;
 J-375           	1051.787    	6.04        	1               	;
 J-377           	1032.865    	1.08        	1               	;
 J-378           	1110.2      	1.32        	1               	;
 J-379           	1129.8      	0.19        	1               	;
 J-38            	1401.255    	1.88        	1               	;
 J-380           	1052.32     	1.74        	1               	;
 J-381           	1065.325    	0.78        	1               	;
 J-382           	1188.646    	2.03        	1               	;
 J-383           	1155.86     	0.78        	1               	;
 J-384           	1198.676    	6.81        	1               	;
 J-385           	1263.3      	0.08        	1               	;
 J-386           	1263.5      	2.36        	1               	;
 J-387           	1265.6      	0.09        	1               	;
 J-388           	1090.686    	0.47        	1               	;
 J-389           	1113.062    	0.42        	1               	;
 J-390           	1032.471    	3.28        	1               	;
 J-391           	1031.7      	2.78        	1               	;
 J-392           	1072.807    	2.51        	1               	;
 J-393           	1123.421    	0.25        	1               	;
 J-394           	1061.111    	2.88        	1               	;
 J-396           	1045.048    	3.42        	1               	;
 J-397           	1028.5      	2.15        	1               	;
 J-398           	1069.157    	1.39        	1               	;
 J-399           	1098.406    	1.11        	1               	;
 J-4             	1202.831    	0.13        	1               	;
 J-40            	1035.833    	2.82        	1               	;
 J-400           	1101.284    	0.37        	1               	;
 J-401           	1052.498    	2.43        	1               	;
 J-402           	1127.679    	0.64        	1               	;
 J-403           	1023.729    	0.943       	1               	;
 J-404           	1026.518    	1.07        	1               	;
 J-406           	1031.66     	2.27        	1               	;
 J-407           	1040.684    	0.15        	1               	;
 J-408           	1215.21     	1.94        	1               	;
 J-409           	1240.158    	0.6         	1               	;
 J-41            	1269.781    	3.57        	1               	;
 J-412           	1032.719    	2.16        	1               	;
 J-413           	1033.836    	1.01        	1               	;
 J-414           	1114.276    	0.92        	1               	;
 J-415           	1276.21     	1.91        	1               	;
 J-416           	1162.965    	0.78        	1               	;
 J-417           	1125.033    	0.6         	1               	;
 J-418           	1154.322    	0.33        	1               	;
 J-419           	1068.437    	3.37        	1               	;
 J-42            	1175.051    	1.17        	1               	;
 J-420           	1060.6      	0.67        	1               	;
 J-421           	1075.565    	0.36        	1               	;
 J-422           	1108.621    	0.2         	1               	;
 J-423           	1042.834    	2.19        	1               	;
 J-424           	1118.73     	1.52        	1               	;
 J-425           	1112.964    	0.87        	1               	;
 J-426           	1116.127    	0.64        	1               	;
 J-427           	1122.757    	0.13        	1               	;
 J-428           	1214.953    	2.91        	1               	;
 J-43            	1049.526    	10.94       	1               	;
 J-430           	1099.446    	2.59        	1               	;
 J-431           	1115.365    	2.33        	1               	;
 J-432           	1104.841    	0.54        	1               	;
 J-435           	1073.626    	3.33        	1               	;
 J-436           	1194.742    	0.55        	1               	;
 J-437           	1371.763    	4.08        	1               	;
 J-438           	1421        	1.18        	1               	;
 J-44            	1312.968    	3.18        	1               	;
 J-442           	1102.056    	4.25        	1               	;
 J-443           	1136.945    	3.49        	1               	;
 J-444           	1212.935    	0.85        	1               	;
 J-445           	1114.407    	1.2         	1               	;
 J-446           	1140.788    	0.55        	1               	;
 J-448           	1219.26     	4.72        	1               	;
 J-45            	1123.894    	2           	1               	;
 J-450           	1120.18     	1.03        	1               	;
 J-451           	1090.977    	0.3         	1               	;
 J-454           	1225.297    	1.36        	1               	;
 J-455           	1061.931    	0.26        	1               	;
 J-456           	1067.734    	0.3         	1               	;
 J-457           	1149.133    	1.5         	1               	;
 J-458           	1172.457    	0.32        	1               	;
 J-459           	1064.933    	1.76        	1               	;
 J-46            	1340.94     	1.03        	1               	;
 J-460           	1064.673    	0.86        	1               	;
 J-461           	1135.378    	1.14        	1               	;
 J-462           	1457.887    	1.52        	1               	;
 J-463           	1484.682    	0.24        	1               	;
 J-464           	1110.192    	0.85        	1               	;
 J-465           	1130.545    	0.36        	1               	;
 J-469           	1207.534    	1.74        	1               	;
 J-47            	1127.741    	2.58        	1               	;
 J-470           	1230.316    	0.5         	1               	;
 J-472           	1052.545    	0.59        	1               	;
 J-473           	1170.6      	3.73        	1               	;
 J-476           	1119.471    	3.97        	1               	;
 J-477           	1127.64     	0.15        	1               	;
 J-478           	1261.265    	6.16        	1               	;
 J-479           	1260.661    	3.8         	1               	;
 J-48            	1201.994    	1.85        	1               	;
 J-480           	1070.829    	2.27        	1               	;
 J-481           	1057.32     	0.41        	1               	;
 J-482           	1053.324    	0.05        	1               	;
 J-483           	1229.853    	9.65        	1               	;
 J-484           	1279.466    	4.57        	1               	;
 J-485           	1228.266    	4.32        	1               	;
 J-486           	1162.6      	4.74        	1               	;
 J-487           	1247.298    	0.71        	1               	;
 J-488           	1220.906    	0.33        	1               	;
 J-49            	1041.491    	3.11        	1               	;
 J-490           	1427.369    	0.74        	1               	;
 J-491           	1388.6      	1.96        	1               	;
 J-492           	1172.154    	1.12        	1               	;
 J-494           	1150.451    	1.27        	1               	;
 J-495           	1128.811    	0.59        	1               	;
 J-496           	1156.261    	1.19        	1               	;
 J-497           	1179.053    	0.53        	1               	;
 J-498           	1457.049    	1.03        	1               	;
 J-499           	1444.088    	0.2         	1               	;
 J-5             	1499.832    	0           	                	;
 J-50            	1064.361    	0           	                	;
 J-500           	1120.275    	1.03        	1               	;
 J-501           	1129.844    	2.08        	1               	;
 J-502           	1168.5      	1.87        	1               	;
 J-503           	1172.3      	1.12        	1               	;
 J-504           	1133.461    	3.93        	1               	;
 J-505           	1122.557    	1.42        	1               	;
 J-506           	1183.36     	6.74        	1               	;
 J-507           	1188.099    	0.56        	1               	;
 J-508           	1110.257    	0.91        	1               	;
 J-509           	1164.053    	0.61        	1               	;
 J-51            	1174.493    	7.13        	1               	;
 J-510           	1051.078    	2.76        	1               	;
 J-511           	1043.166    	0.77        	1               	;
 J-512           	1192.433    	0.22        	1               	;
 J-513           	1182.7      	3.41        	1               	;
 J-515           	1076.572    	2.41        	1               	;
 J-516           	1180.131    	1.08        	1               	;
 J-517           	1126.558    	0.64        	1               	;
 J-518           	1252.41     	1.25        	1               	;
 J-519           	1114.326    	0.76        	1               	;
 J-52            	1154.712    	0           	                	;
 J-520           	1079.095    	0.99        	1               	;
 J-521           	1101.635    	2.78        	1               	;
 J-522           	1043.26     	0.62        	1               	;
 J-523           	1063.032    	1.75        	1               	;
 J-524           	1101.261    	0.63        	1               	;
 J-525           	1479.7      	0.86        	1               	;
 J-526           	1130.694    	0.18        	1               	;
 J-527           	1149.219    	1.21        	1               	;
 J-528           	1162.982    	3           	1               	;
 J-529           	1073.447    	0.32        	1               	;
 J-53            	1487.483    	0.87        	1               	;
 J-530           	1063.988    	5.07        	1               	;
 J-531           	1105.75     	1.04        	1               	;
 J-532           	1041.764    	1.04        	1               	;
 J-533           	1069.536    	0.35        	1               	;
 J-534           	1066.677    	4.87        	1               	;
 J-535           	1060.555    	1.73        	1               	;
 J-537           	1326.107    	1.64        	1               	;
 J-538           	1362.657    	0.26        	1               	;
 J-539           	1202.6      	3.4         	1               	;
 J-54            	1130.906    	0.9         	1               	;
 J-540           	1397.637    	1.94        	1               	;
 J-541           	1482.008    	0.87        	1               	;
 J-542           	1103.757    	3.09        	1               	;
 J-543           	1052.329    	4.12        	1               	;
 J-545           	1764.832    	0.54        	1               	;
 J-546           	1189.284    	3.71        	1               	;
 J-547           	1105.807    	1.31        	1               	;
 J-55            	1380.75     	0           	                	;
 J-550           	1120.917    	3.66        	1               	;
 J-551           	1135.898    	0.57        	1               	;
 J-552           	1112.905    	0.17        	1               	;
 J-553           	1152.271    	3.02        	1               	;
 J-554           	1139.45     	0.96        	1               	;
 J-555           	1200.6      	0.55        	1               	;
 J-556           	1114.523    	0.31        	1               	;
 J-557           	1119.71     	0.19        	1               	;
 J-558           	1153.198    	2.59        	1               	;
 J-559           	1108.191    	0.93        	1               	;
 J-56            	1153.987    	0           	                	;
 J-560           	1302.439    	2.66        	1               	;
 J-561           	1304.437    	0.72        	1               	;
 J-563           	1206.8      	0.92        	1               	;
 J-564           	1404.578    	1.23        	1               	;
 J-565           	1403.934    	2.07        	1               	;
 J-566           	1082.466    	2.17        	1               	;
 J-567           	1123.588    	1.61        	1               	;
 J-569           	1147.106    	0.49        	1               	;
 J-57            	1493.482    	0.88        	1               	;
 J-570           	1095.823    	0.51        	1               	;
 J-571           	1223.636    	1.57        	1               	;
 J-572           	1213.151    	0.34        	1               	;
 J-573           	1064.942    	4.05        	1               	;
 J-574           	1092.11     	0.6         	1               	;
 J-575           	1398.707    	1.21        	1               	;
 J-576           	1416.297    	0.85        	1               	;
 J-577           	1425.558    	1.63        	1               	;
 J-578           	1070.892    	0.58        	1               	;
 J-579           	1128.326    	0.5         	1               	;
 J-58            	1046.425    	4.53        	1               	;
 J-580           	1377.5      	2.76        	1               	;
 J-581           	1395.7      	0.96        	1               	;
 J-582           	1061.447    	3.39        	1               	;
 J-583           	1146.344    	1.94        	1               	;
 J-584           	1073.226    	2.76        	1               	;
 J-586           	1146.976    	1.79        	1               	;
 J-587           	1136.51     	0.33        	1               	;
 J-588           	1046.965    	0.28        	1               	;
 J-589           	1044.982    	0.34        	1               	;
 J-59            	1219.747    	6.58        	1               	;
 J-590           	1423.2      	2.18        	1               	;
 J-591           	1429.9      	0.82        	1               	;
 J-592           	1155.995    	3.2         	1               	;
 J-593           	1182.118    	0.47        	1               	;
 J-594           	1128.913    	0.55        	1               	;