[TITLE]
L-TOWN v1.2
L-TOWN (v1.2) was developed by KIOS Research and Innovation Center of Excellence for the BattLeDIM 2020 competition

[JUNCTIONS]
;ID              	Elev        	Demand      	Pattern         
 n1              	73.2105     	0.000000    	P-Residential   	;AMR & PRESSURE SENSOR
 n2              	73.8737     	0.169920    	P-Residential   	;AMR
 n3              	73.1782     	0.190800    	P-Residential   	;AMR
 n4              	68.2608     	0.000000    	P-Residential   	;AMR & PRESSURE SENSOR
 n5              	65.5695     	0.232200    	P-Residential   	;
 n6              	70.9095     	0.246600    	P-Residential   	;AMR
 n7              	75.9175     	0.378360    	P-Residential   	;AMR
 n8              	64.4833     	0.301320    	P-Residential   	;AMR
 n9              	69.2626     	0.404640    	P-Residential   	;AMR
 n10             	74.3469     	0.084240    	P-Residential   	;AMR
 n11             	63.0588     	0.544320    	P-Residential   	;AMR
 n12             	68.2274     	0.058320    	P-Residential   	;
 n13             	61.9901     	0.235800    	P-Residential   	;AMR
 n14             	68.5805     	0.019440    	P-Residential   	;
 n15             	70.9492     	0.191520    	P-Residential   	;
 n16             	68.7986     	0.096480    	P-Residential   	;AMR
 n17             	60.5935     	0.448920    	P-Residential   	;AMR
 n18             	67.1420     	0.072360    	P-Residential   	;AMR
 n19             	73.3626     	0.129240    	P-Residential   	;AMR
 n20             	65.9549     	0.144360    	P-Residential   	;AMR
 n21             	59.6849     	0.060840    	P-Residential   	;AMR
 n22             	76.1173     	0.150840    	P-Residential   	;AMR
 n23             	64.2052     	0.028690    	P-Residential   	;AMR
 n24             	67.8217     	0.043920    	P-Residential   	;AMR
 n25             	58.9717     	0.000000    	P-Residential   	;AMR
 n26             	61.6305     	0.004680    	P-Residential   	;AMR
 n27             	65.7763     	0.130680    	P-Residential   	;AMR
 n28             	61.4047     	0.000000    	P-Residential   	;AMR
 n29             	71.5429     	0.048960    	P-Residential   	;AMR
 n30             	75.3299     	0.305640    	P-Residential   	;AMR
 n31             	65.0059     	0.116280    	P-Residential   	;AMR & PRESSURE SENSOR
 n32             	71.1590     	0.079920    	P-Residential   	;AMR
 n33             	60.5902     	0.002880    	P-Residential   	;AMR
 n34             	65.8482     	0.112320    	P-Residential   	;AMR
 n35             	59.6258     	0.000000    	P-Residential   	;AMR
 n36             	70.1959     	0.266400    	P-Residential   	;AMR
 n37             	63.9172     	0.084600    	P-Residential   	;
 n38             	58.5794     	0.188890    	P-Residential   	;
 n39             	62.9791     	0.016560    	P-Residential   	;AMR
 n40             	60.2093     	0.342000    	P-Residential   	;AMR
 n41             	69.2961     	0.170280    	P-Residential   	;AMR
 n42             	61.0635     	0.243000    	P-Residential   	;AMR
 n43             	61.8585     	0.118080    	P-Residential   	;AMR
 n44             	66.1177     	0.038880    	P-Residential   	;AMR
 n45             	62.5989     	0.272880    	P-Residential   	;AMR
 n46             	38.8781     	0.069660    	P-Residential   	;
 n47             	38.7028     	0.146160    	P-Residential   	;
 n48             	40.1135     	0.217850    	P-Residential   	;
 n49             	34.8665     	0.103630    	P-Residential   	;
 n50             	44.7174     	0.389880    	P-Residential   	;
 n51             	29.8508     	0.333400    	P-Residential   	;
 n52             	33.2106     	0.048910    	P-Residential   	;
 n53             	29.1285     	0.299520    	P-Residential   	;
 n54             	36.6718     	0.084800    	P-Residential   	;PRESSURE SENSOR
 n55             	43.7044     	0.253550    	P-Residential   	;
 n56             	32.7019     	0.318220    	P-Residential   	;
 n57             	34.5788     	0.068060    	P-Residential   	;
 n58             	30.1017     	0.163750    	P-Residential   	;
 n59             	40.5440     	0.134780    	P-Residential   	;
 n60             	36.5477     	0.087550    	P-Residential   	;
 n61             	36.5714     	0.026330    	P-Residential   	;
 n62             	35.9600     	0.079060    	P-Residential   	;
 n63             	37.0071     	0.155950    	P-Residential   	;
 n64             	34.9234     	0.156920    	P-Residential   	;
 n65             	36.2244     	0.042440    	P-Residential   	;
 n66             	34.2760     	0.073260    	P-Residential   	;
 n67             	32.5016     	0.404710    	P-Residential   	;
 n68             	41.0943     	0.178130    	P-Residential   	;
 n69             	27.7774     	0.377230    	P-Residential   	;
 n70             	29.8554     	0.178200    	P-Residential   	;
 n71             	30.0823     	0.241830    	P-Residential   	;
 n72             	34.4673     	0.019490    	P-Residential   	;
 n73             	33.0899     	0.031540    	P-Residential   	;
 n74             	32.3582     	0.049100    	P-Residential   	;
 n75             	40.1001     	0.024430    	P-Residential   	;
 n76             	30.5603     	0.097450    	P-Residential   	;
 n77             	33.9737     	0.029480    	P-Residential   	;
 n78             	29.2383     	0.099880    	P-Residential   	;
 n79             	32.7267     	0.182740    	P-Residential   	;
 n80             	27.7113     	0.258300    	P-Residential   	;
 n81             	31.0269     	0.172220    	P-Residential   	;
 n82             	39.6884     	0.176080    	P-Residential   	;
 n83             	35.7824     	0.153000    	P-Residential   	;
 n84             	28.8092     	0.141950    	P-Residential   	;
 n85             	38.6811     	0.001080    	P-Residential   	;
 n86             	38.1149     	0.181980    	P-Residential   	;
 n87             	35.2466     	0.006120    	P-Residential   	;
 n88             	34.2301     	0.076970    	P-Residential   	;
 n89             	31.7913     	0.018130    	P-Residential   	;
 n90             	36.3955     	0.106920    	P-Residential   	;
 n91             	33.0649     	0.013320    	P-Residential   	;
 n92             	33.1049     	0.015730    	P-Residential   	;
 n93             	29.3998     	0.161140    	P-Residential   	;
 n94             	27.5188     	0.534740    	P-Residential   	;
 n95             	25.4416     	0.000000    	P-Residential   	;
 n96             	24.1924     	0.138700    	P-Residential   	;
 n97             	27.2125     	0.424660    	P-Residential   	;
 n98             	25.5648     	0.123120    	P-Residential   	;
 n99             	23.3478     	0.171720    	P-Residential   	;
 n100            	25.0658     	0.363820    	P-Residential   	;
 n101            	24.1570     	0.126000    	P-Residential   	;
 n102            	23.6941     	0.094480    	P-Residential   	;
 n103            	24.3635     	0.084670    	P-Residential   	;
 n104            	20.9592     	0.000000    	P-Residential   	;
 n105            	24.0220     	0.001400    	P-Residential   	;PRESSURE SENSOR
 n106            	23.5008     	0.111960    	P-Residential   	;
 n107            	23.5410     	0.000740    	P-Residential   	;
 n108            	19.8166     	0.000000    	P-Residential   	;
 n109            	23.4984     	0.000578    	P-Residential   	;
 n110            	23.8384     	0.028040    	P-Residential   	;
 n111            	25.0000     	0.368930    	P-Residential   	;
 n112            	23.5656     	0.117070    	P-Residential   	;
 n113            	23.6071     	0.125660    	P-Residential   	;
 n114            	20.4764     	0.082370    	P-Residential   	;PRESSURE SENSOR
 n115            	23.8321     	0.006480    	P-Residential   	;
 n116            	20.9110     	0.190190    	P-Residential   	;
 n117            	26.9614     	0.258340    	P-Residential   	;
 n118            	19.0993     	0.000000    	P-Residential   	;
 n119            	20.0895     	0.242570    	P-Residential   	;
 n120            	22.6201     	0.084960    	P-Residential   	;
 n121            	19.3967     	0.000240    	P-Residential   	;
 n122            	22.4946     	0.101660    	P-Residential   	;
 n123            	21.5338     	0.134350    	P-Residential   	;
 n124            	22.6501     	0.011880    	P-Residential   	;
 n125            	20.5899     	0.050000    	P-Residential   	;
 n126            	19.1670     	0.238030    	P-Residential   	;
 n127            	19.1187     	0.005960    	P-Residential   	;
 n128            	22.0969     	0.111820    	P-Residential   	;
 n129            	25.9010     	0.142020    	P-Residential   	;
 n130            	22.1732     	0.204700    	P-Residential   	;
 n131            	19.5520     	0.118220    	P-Residential   	;
 n132            	20.3762     	0.132120    	P-Residential   	;
 n133            	22.5783     	0.279270    	P-Residential   	;
 n134            	19.2113     	0.008960    	P-Residential   	;
 n135            	19.1205     	0.113180    	P-Residential   	;
 n136            	20.3013     	0.336020    	P-Residential   	;
 n137            	19.6856     	0.036760    	P-Residential   	;
 n138            	20.8380     	0.027270    	P-Residential   	;
 n139            	19.6632     	0.000000    	P-Residential   	;
 n140            	27.3504     	0.116680    	P-Residential   	;
 n141            	23.1252     	0.216070    	P-Residential   	;
 n142            	19.6239     	0.039850    	P-Residential   	;
 n143            	20.8754     	0.123980    	P-Residential   	;
 n144            	26.9472     	0.339640    	P-Residential   	;
 n145            	22.1344     	0.126360    	P-Residential   	;
 n146            	21.8276     	0.173000    	P-Residential   	;
 n147            	19.9725     	0.157900    	P-Residential   	;
 n148            	20.1477     	0.072000    	P-Residential   	;
 n149            	20.9496     	0.056300    	P-Residential   	;
 n150            	22.6861     	0.017100    	P-Residential   	;
 n151            	19.8447     	0.032150    	P-Residential   	;
 n152            	19.1334     	0.000000    	P-Residential   	;
 n153            	22.6394     	0.213190    	P-Residential   	;
 n154            	20.3582     	0.161530    	P-Residential   	;
 n155            	26.3852     	0.089890    	P-Residential   	;
 n156            	20.0619     	0.016800    	P-Residential   	;
 n157            	20.4464     	0.026800    	P-Residential   	;
 n158            	19.7472     	0.000000    	P-Residential   	;
 n159            	27.0053     	0.147670    	P-Residential   	;
 n160            	20.2078     	0.239620    	P-Residential   	;
 n161            	21.3197     	0.000000    	P-Residential   	;
 n162            	26.9729     	0.021060    	P-Residential   	;
 n163            	21.6096     	0.046850    	P-Residential   	;PRESSURE SENSOR
 n164            	20.2745     	0.178520    	P-Residential   	;
 n165            	19.8081     	0.323570    	P-Residential   	;
 n166            	20.2750     	0.231620    	P-Residential   	;
 n167            	22.5413     	0.151630    	P-Residential   	;
 n168            	20.4384     	0.046980    	P-Residential   	;
 n169            	27.0181     	0.063590    	P-Residential   	;
 n170            	23.2339     	0.568040    	P-Residential   	;
 n171            	20.6067     	0.218520    	P-Residential   	;
 n172            	19.1601     	0.050540    	P-Residential   	;
 n173            	21.0596     	0.179390    	P-Residential   	;
 n174            	21.4292     	0.000000    	P-Residential   	;
 n175            	19.3536     	0.117940    	P-Residential   	;
 n176            	27.7038     	0.114520    	P-Residential   	;
 n177            	19.3479     	0.167330    	P-Residential   	;
 n178            	21.9026     	0.037840    	P-Residential   	;
 n179            	19.4895     	0.000000    	P-Residential   	;
 n180            	22.7778     	0.021200    	P-Residential   	;
 n181            	23.7049     	0.129240    	P-Residential   	;
 n182            	25.0850     	0.161820    	P-Residential   	;
 n183            	19.3859     	0.134350    	P-Residential   	;
 n184            	27.2441     	0.053530    	P-Residential   	;
 n185            	19.0789     	0.157250    	P-Residential   	;
 n186            	21.8196     	0.110160    	P-Residential   	;
 n187            	19.0349     	0.023510    	P-Residential   	;
 n188            	18.8768     	0.000360    	P-Residential   	;PRESSURE SENSOR
 n189            	18.6826     	0.116420    	P-Residential   	;
 n190            	19.6529     	0.058320    	P-Residential   	;
 n191            	27.4799     	0.345710    	P-Residential   	;
 n192            	22.2060     	0.254930    	P-Residential   	;
 n193            	19.7041     	0.027360    	P-Residential   	;
 n194            	19.7601     	0.020250    	P-Residential   	;
 n195            	16.8285     	0.099400    	P-Residential   	;
 n196            	19.8226     	0.075740    	P-Residential   	;
 n197            	16.5799     	0.000000    	P-Residential   	;
 n198            	22.8492     	0.000000    	P-Residential   	;
 n199            	16.5475     	0.159410    	P-Residential   	;
 n200            	18.2407     	0.142880    	P-Residential   	;
 n201            	19.1060     	0.062210    	P-Residential   	;
 n202            	17.9436     	0.028190    	P-Residential   	;
 n203            	22.0332     	0.190800    	P-Residential   	;
 n204            	16.4360     	0.069980    	P-Residential   	;
 n205            	6.9791      	0.000000    	P-Residential   	;
 n206            	7.9123      	0.000000    	P-Residential   	;
 n207            	2.0579      	0.000000    	P-Residential   	;
 n208            	5.9061      	0.000000    	P-Residential   	;
 n209            	4.6117      	0.000000    	P-Residential   	;
 n210            	2.7477      	0.000000    	P-Residential   	;
 n211            	4.8451      	0.000000    	P-Residential   	;
 n212            	2.3488      	0.000000    	P-Residential   	;
 n213            	3.2427      	0.000000    	P-Residential   	;
 n214            	16.8316     	0.008940    	P-Residential   	;
 n215            	2.0066      	0.000000    	P-Residential   	;PRESSURE SENSOR
 n216            	2.4091      	0.000000    	P-Residential   	;
 n217            	1.8712      	0.000000    	P-Residential   	;
 n218            	29.6006     	0.136480    	P-Residential   	;
 n219            	28.4518     	0.120530    	P-Residential   	;
 n220            	30.7523     	0.181370    	P-Residential   	;
 n221            	28.2232     	0.089750    	P-Residential   	;
 n222            	28.0585     	0.008280    	P-Residential   	;
 n223            	28.5629     	0.044950    	P-Residential   	;
 n224            	26.9114     	0.111220    	P-Residential   	;
 n225            	25.5000     	0.196040    	P-Residential   	;
 n226            	6.1130      	0.000000    	P-Residential   	;
 n227            	5.7901      	0.000000    	P-Residential   	;
 n228            	27.3852     	0.102260    	P-Residential   	;
 n229            	21.5781     	0.178420    	P-Residential   	;PRESSURE SENSOR
 n230            	28.3962     	0.041980    	P-Residential   	;
 n231            	4.8639      	0.000000    	P-Residential   	;
 n232            	26.0377     	0.040680    	P-Residential   	;
 n233            	4.4157      	0.000000    	P-Residential   	;
 n234            	5.1036      	0.097420    	P-Residential   	;
 n235            	24.1047     	0.274770    	P-Residential   	;
 n236            	3.0871      	0.000000    	P-Residential   	;
 n237            	4.0834      	0.130030    	P-Residential   	;
 n238            	24.6076     	0.341640    	P-Residential   	;
 n239            	22.9677     	0.235940    	P-Residential   	;
 n240            	28.8065     	0.202970    	P-Residential   	;
 n241            	22.1953     	0.177620    	P-Residential   	;
 n242            	2.3582      	0.000000    	P-Residential   	;
 n243            	2.6564      	0.000000    	P-Residential   	;
 n244            	21.2523     	0.589540    	P-Residential   	;
 n245            	28.6610     	0.100760    	P-Residential   	;
 n246            	1.9044      	0.000000    	P-Residential   	;
 n247            	2.1170      	0.000000    	P-Residential   	;
 n248            	29.3100     	0.164810    	P-Residential   	;
 n249            	28.5347     	0.045220    	P-Residential   	;
 n250            	28.4140     	0.089750    	P-Residential   	;
 n251            	21.3004     	0.189000    	P-Residential   	;
 n252            	24.7044     	0.136260    	P-Residential   	;
 n253            	2.2871      	0.188710    	P-Residential   	;
 n254            	2.2175      	0.003240    	P-Residential   	;
 n255            	20.9378     	0.000720    	P-Residential   	;
 n256            	17.7770     	0.242640    	P-Residential   	;
 n257            	28.3219     	0.053730    	P-Residential   	;
 n258            	24.7483     	0.050290    	P-Residential   	;
 n259            	24.6010     	0.000000    	P-Residential   	;
 n260            	17.7457     	0.126500    	P-Residential   	;
 n261            	16.7006     	0.141480    	P-Residential   	;
 n262            	24.2606     	0.215950    	P-Residential   	;
 n263            	24.6696     	0.104020    	P-Residential   	;
 n264            	20.6282     	0.000000    	P-Residential   	;
 n265            	28.4319     	0.030710    	P-Residential   	;
 n266            	19.9680     	0.320690    	P-Residential   	;
 n267            	23.3745     	0.131170    	P-Residential   	;
 n268            	21.9354     	0.112550    	P-Residential   	;
 n269            	26.1653     	0.097560    	P-Residential   	;
 n270            	20.8216     	0.177300    	P-Residential   	;
 n271            	34.0390     	0.147440    	P-Residential   	;
 n272            	20.1368     	0.130030    	P-Residential   	;
 n273            	24.5091     	0.269460    	P-Residential   	;
 n274            	32.8648     	0.011680    	P-Residential   	;
 n275            	29.2533     	0.083450    	P-Residential   	;
 n276            	21.3002     	0.209090    	P-Residential   	;
 n277            	22.4480     	0.016920    	P-Residential   	;
 n278            	22.0132     	0.110880    	P-Residential   	;
 n279            	21.7544     	0.083810    	P-Residential   	;
 n280            	29.6042     	0.118660    	P-Residential   	;
 n281            	31.2675     	0.119930    	P-Residential   	;
 n282            	30.4949     	0.157790    	P-Residential   	;
 n283            	27.4233     	0.144400    	P-Residential   	;
 n284            	26.3666     	0.180790    	P-Residential   	;
 n285            	20.4612     	0.189600    	P-Residential   	;
 n286            	29.0388     	0.257150    	P-Residential   	;
 n287            	33.0444     	0.000000    	P-Residential   	;
 n288            	21.6218     	0.014200    	P-Residential   	;PRESSURE SENSOR
 n289            	27.4463     	0.046400    	P-Residential   	;
 n290            	24.6247     	0.158760    	P-Residential   	;
 n291            	32.4985     	0.156560    	P-Residential   	;
 n292            	31.9495     	0.084280    	P-Residential   	;
 n293            	26.5282     	0.167400    	P-Residential   	;
 n294            	26.5192     	0.040990    	P-Residential   	;
 n295            	30.8274     	0.145750    	P-Residential   	;
 n296            	32.1966     	0.094500    	P-Residential   	;PRESSURE SENSOR
 n297            	23.3934     	0.188390    	P-Residential   	;
 n298            	34.8909     	0.000000    	P-Residential   	;
 n299            	26.7205     	0.181440    	P-Residential   	;
 n300            	35.0000     	0.000000    	P-Residential   	;
 n301            	23.5200     	0.068200    	P-Residential   	;
 n302            	23.3123     	0.162220    	P-Residential   	;
 n303            	34.4994     	0.000000    	P-Residential   	;
 n304            	32.9780     	0.107660    	P-Residential   	;
 n305            	25.4869     	0.229930    	P-Residential   	;
 n306            	23.6839     	0.225140    	P-Residential   	;
 n307            	31.4204     	0.149260    	P-Residential   	;
 n308            	23.3861     	0.096260    	P-Residential   	;
 n309            	23.1678     	0.267120    	P-Residential   	;
 n310            	22.3600     	0.148030    	P-Residential   	;
 n311            	29.5998     	0.019150    	P-Residential   	;
 n312            	22.0779     	0.133490    	P-Residential   	;
 n313            	21.7616     	0.155160    	P-Residential   	;
 n314            	29.6902     	0.082080    	P-Residential   	;
 n315            	22.7969     	0.141050    	P-Residential   	;
 n316            	29.3551     	0.114660    	P-Residential   	;
 n317            	22.2884     	0.080930    	P-Residential   	;
 n318            	23.5639     	0.169340    	P-Residential   	;
 n319            	30.4617     	0.052630    	P-Residential   	;
 n320            	28.2142     	0.101740    	P-Residential   	;
 n321            	21.8970     	0.111310    	P-Residential   	;
 n322            	26.9371     	0.000000    	P-Residential   	;
 n323            	26.0702     	0.210020    	P-Residential   	;
 n324            	24.9686     	0.012600    	P-Residential   	;
 n325            	24.3047     	0.190220    	P-Residential   	;
 n326            	23.6854     	0.187180    	P-Residential   	;
 n327            	22.2849     	0.215550    	P-Residential   	;
 n328            	22.1954     	0.052700    	P-Residential   	;
 n329            	24.3743     	0.007200    	P-Residential   	;
 n330            	22.0274     	0.085100    	P-Residential   	;
 n331            	22.9257     	0.030820    	P-Residential   	;
 n332            	18.0000     	0.005800    	P-Residential   	;PRESSURE SENSOR
 n333            	18.0000     	0.039380    	P-Residential   	;
 n334            	18.0000     	0.075020    	P-Residential   	;
 n335            	27.4500     	0.129530    	P-Residential   	;
 n336            	26.0000     	0.307260    	P-Residential   	;
 n337            	4.1000      	0.000000    	P-Residential   	;
 n338            	28.2000     	0.000000    	P-Residential   	;
 n339            	22.8000     	0.216070    	P-Residential   	;
 n340            	30.1000     	0.457610    	P-Residential   	;
 n341            	22.8000     	0.002160    	P-Residential   	;
 n342            	27.3600     	0.000000    	P-Residential   	;PRESSURE SENSOR
 n343            	66.1200     	0.128300    	P-Residential   	;AMR
 n344            	74.2800     	0.266400    	P-Residential   	;AMR
 n345            	71.2300     	0.052560    	P-Residential   	;AMR
 n346            	67.9300     	0.178560    	P-Residential   	;AMR
 n347            	73.6617     	0.000000    	P-Residential   	;AMR
 n348            	74.1128     	0.029880    	P-Residential   	;
 n349            	74.5640     	0.059760    	P-Residential   	;AMR
 n350            	75.0152     	0.208440    	P-Residential   	;AMR
 n351            	75.4663     	0.392400    	P-Residential   	;AMR
 n352            	74.1103     	0.133200    	P-Residential   	;AMR
 n353            	73.5455     	0.292680    	P-Residential   	;AMR
 n354            	73.9127     	0.123120    	P-Residential   	;AMR
 n355            	66.4555     	0.438120    	P-Residential   	;AMR
 n356            	67.3414     	0.124200    	P-Residential   	;AMR
 n357            	69.7450     	0.102240    	P-Residential   	;AMR
 n358            	75.9841     	0.550080    	P-Residential   	;AMR
 n359            	76.0507     	0.388080    	P-Residential   	;
 n360            	64.9738     	0.268200    	P-Residential   	;AMR
 n361            	65.4644     	0.113400    	P-Residential   	;AMR
 n362            	74.0188     	0.005760    	P-Residential   	;AMR
 n363            	73.6907     	0.154440    	P-Residential   	;
 n364            	63.4409     	0.099360    	P-Residential   	;AMR
 n365            	63.8231     	0.110520    	P-Residential   	;AMR
 n366            	61.8702     	0.163800    	P-Residential   	;AMR
 n367            	61.7504     	0.044890    	P-Residential   	;AMR
 n368            	71.0896     	0.115560    	P-Residential   	;AMR
 n369            	60.5924     	0.177840    	P-Residential   	;AMR
 n370            	60.5913     	0.040270    	P-Residential   	;AMR
 n371            	73.8213     	0.070560    	P-Residential   	;AMR
 n372            	65.8656     	0.036000    	P-Residential   	;AMR
 n373            	59.6553     	0.030600    	P-Residential   	;AMR
 n374            	74.9737     	0.112680    	P-Residential   	;AMR
 n375            	73.8301     	0.058680    	P-Residential   	;AMR
 n376            	72.6865     	0.128160    	P-Residential   	;AMR
 n377            	62.9179     	0.000000    	P-Residential   	;AMR
 n378            	68.9578     	0.013680    	P-Residential   	;AMR
 n379            	70.0939     	0.097200    	P-Residential   	;AMR
 n380            	61.2341     	0.168120    	P-Residential   	;
 n381            	74.0464     	0.230040    	P-Residential   	;AMR
 n382            	72.7629     	0.147600    	P-Residential   	;AMR
 n383            	71.4794     	0.084600    	P-Residential   	;AMR
 n384            	69.5445     	0.210240    	P-Residential   	;AMR
 n385            	66.8891     	0.048960    	P-Residential   	;AMR
 n386            	59.3943     	0.248760    	P-Residential   	;AMR
 n387            	64.9448     	0.160920    	P-Residential   	;AMR
 n388            	63.7718     	0.298510    	P-Residential   	;AMR
 n389            	67.0238     	0.168120    	P-Residential   	;AMR
 n390            	38.1640     	0.127800    	P-Residential   	;
 n391            	37.6252     	0.120240    	P-Residential   	;
 n392            	37.0865     	0.071480    	P-Residential   	;
 n393            	38.8775     	0.072580    	P-Residential   	;
 n394            	39.0521     	0.087050    	P-Residential   	;
 n395            	39.2268     	0.094660    	P-Residential   	;
 n396            	39.4015     	0.047860    	P-Residential   	;
 n397            	39.5761     	0.138200    	P-Residential   	;
 n398            	39.7508     	0.158220    	P-Residential   	;
 n399            	39.9254     	0.002520    	P-Residential   	;
 n400            	40.2570     	0.110560    	P-Residential   	;
 n401            	40.4005     	0.312730    	P-Residential   	;
 n402            	41.2645     	0.277420    	P-Residential   	;
 n403            	42.4154     	0.307260    	P-Residential   	;
 n404            	43.5664     	0.195370    	P-Residential   	;
 n405            	34.7226     	0.167090    	P-Residential   	;
 n406            	29.9762     	0.121480    	P-Residential   	;
 n407            	31.6562     	0.163370    	P-Residential   	;
 n408            	36.3159     	0.290810    	P-Residential   	;
 n409            	42.1242     	0.042370    	P-Residential   	;
 n410            	42.8344     	0.062120    	P-Residential   	;PRESSURE SENSOR
 n411            	41.9643     	0.273350    	P-Residential   	;
 n412            	32.6351     	0.256140    	P-Residential   	;
 n413            	32.5684     	0.053260    	P-Residential   	;
 n414            	34.4274     	0.192370    	P-Residential   	;
 n415            	28.5315     	0.427700    	P-Residential   	;PRESSURE SENSOR
 n416            	40.7274     	0.061380    	P-Residential   	;
 n417            	40.9109     	0.138710    	P-Residential   	;
 n418            	35.4624     	0.018000    	P-Residential   	;
 n419            	34.9649     	0.030130    	P-Residential   	;
 n420            	37.4540     	0.125140    	P-Residential   	;
 n421            	37.9009     	0.063950    	P-Residential   	;
 n422            	38.3478     	0.137970    	P-Residential   	;
 n423            	38.7946     	0.373500    	P-Residential   	;
 n424            	39.2415     	0.054760    	P-Residential   	;
 n425            	34.3122     	0.137610    	P-Residential   	;
 n426            	33.7011     	0.102280    	P-Residential   	;
 n427            	36.5315     	0.102460    	P-Residential   	;
 n428            	36.8386     	0.094750    	P-Residential   	;
 n429            	37.1457     	0.003240    	P-Residential   	;PRESSURE SENSOR
 n430            	37.4527     	0.123170    	P-Residential   	;
 n431            	37.7598     	0.016560    	P-Residential   	;
 n432            	38.0669     	0.122760    	P-Residential   	;
 n433            	38.3740     	0.265460    	P-Residential   	;
 n434            	40.5972     	0.361440    	P-Residential   	;
 n435            	28.8164     	0.224230    	P-Residential   	;
 n436            	34.2205     	0.079180    	P-Residential   	;
 n437            	32.5424     	0.039330    	P-Residential   	;
 n438            	39.8942     	0.141160    	P-Residential   	;
 n439            	30.7936     	0.141460    	P-Residential   	;
 n440            	34.2919     	0.053060    	P-Residential   	;
 n441            	34.6102     	0.129530    	P-Residential   	;
 n442            	34.9284     	0.000000    	P-Residential   	;
 n443            	29.0953     	0.091800    	P-Residential   	;
 n444            	28.9522     	0.162680    	P-Residential   	;
 n445            	28.2603     	0.074090    	P-Residential   	;
 n446            	31.2180     	0.226730    	P-Residential   	;
 n447            	31.4091     	0.208640    	P-Residential   	;
 n448            	31.6002     	0.059670    	P-Residential   	;
 n449            	39.1847     	0.167510    	P-Residential   	;
 n450            	35.9868     	0.139680    	P-Residential   	;
 n451            	36.1911     	0.277340    	P-Residential   	;
 n452            	29.8032     	0.112820    	P-Residential   	;
 n453            	30.7973     	0.259670    	P-Residential   	;
 n454            	34.0772     	0.349060    	P-Residential   	;
 n455            	32.9079     	0.153650    	P-Residential   	;
 n456            	31.7385     	0.143710    	P-Residential   	;
 n457            	30.5692     	0.222480    	P-Residential   	;
 n458            	30.5980     	0.070270    	P-Residential   	;PRESSURE SENSOR
 n459            	29.4047     	0.121070    	P-Residential   	;
 n460            	28.2114     	0.295630    	P-Residential   	;
 n461            	34.2970     	0.439740    	P-Residential   	;
 n462            	32.1985     	0.247500    	P-Residential   	;
 n463            	28.8609     	0.000000    	P-Residential   	;
 n464            	28.3219     	0.000000    	P-Residential   	;