[TITLE]


[JUNCTIONS]
;ID              	Elev        	Demand      	Pattern         
 J-1             	591.3036    	0.99193     	1               	;
 J-10            	666.0713    	0.29758     	1               	;
 J-100           	646.6844    	1.58709     	1               	;
 J-1001          	631.7787    	0.09919     	1               	;
 J-1002          	763.0834    	2.67822     	1               	;
 J-1003          	623.5001    	0.39677     	1               	;
 J-1004          	690.9448    	0.19839     	1               	;
 J-1005          	641.3607    	0.29758     	1               	;
 J-1006          	587.0445    	0.19839     	1               	;
 J-1007          	628.5558    	0.59516     	1               	;
 J-1008          	493.9612    	2.18225     	1               	;
 J-101           	775.5381    	0.79355     	1               	;
 J-1010          	725.1783    	0.19839     	1               	;
 J-1011          	600.7482    	0.69435     	1               	;
 J-1012          	727.4371    	0.19839     	1               	;
 J-1013          	609.0132    	0.19839     	1               	;
 J-1014          	614.2553    	0.49597     	1               	;
 J-1015          	616.9766    	0.29758     	1               	;
 J-1016          	631.2266    	0.99193     	1               	;
 J-1017          	630.3471    	1.68628     	1               	;
 J-1018          	614.0303    	0.19839     	1               	;
 J-1019          	575.0623    	1.09113     	1               	;
 J-102           	805.5351    	0.19839     	1               	;
 J-1020          	658.3006    	1.28951     	1               	;
 J-1021          	632.5563    	0.59516     	1               	;
 J-1022          	647.0989    	0.69435     	1               	;
 J-1023          	700.8723    	2.9758      	1               	;
 J-1024          	719.3944    	0.39677     	1               	;
 J-1025          	616.2443    	0.79355     	1               	;
 J-1026          	698.2537    	0.79355     	1               	;
 J-1027          	662.5314    	1.58709     	1               	;
 J-1028          	677.2       	0.39677     	1               	;
 J-1029          	582.0026    	0.59516     	1               	;
 J-103           	581.6994    	1.4879      	1               	;
 J-1030          	598.8737    	0.39677     	1               	;
 J-1031          	734.1605    	0.09919     	1               	;
 J-1032          	706.5358    	1.09113     	1               	;
 J-1033          	751.9551    	0.59516     	1               	;
 J-1034          	702.3697    	0.09919     	1               	;
 J-1035          	706.5957    	0.39677     	1               	;
 J-1036          	740.6533    	0.79355     	1               	;
 J-1037          	737.8177    	0.49597     	1               	;
 J-1038          	730.3007    	0.89274     	1               	;
 J-1039          	665.301     	0.69435     	1               	;
 J-104           	595.9457    	0.19839     	1               	;
 J-1041          	612.7277    	0.99193     	1               	;
 J-1042          	706.2294    	0.69435     	1               	;
 J-1044          	601.9385    	0.09919     	1               	;
 J-1045          	598.95      	0.19839     	1               	;
 J-1046          	631.4045    	0.09919     	1               	;
 J-1047          	619.8885    	0.09919     	1               	;
 J-1048          	624.4884    	0.69435     	1               	;
 J-1049          	713.8885    	0.59516     	1               	;
 J-105           	685.114     	1.58709     	1               	;
 J-1050          	700.9948    	0.99193     	1               	;
 J-1051          	613.3332    	1.19032     	1               	;
 J-1052          	735.9224    	0           	                	;
 J-1053          	604.0636    	0.09919     	1               	;
 J-1054          	579.2889    	0.69435     	1               	;
 J-1055          	685.7661    	0.39677     	1               	;
 J-1056          	582.8991    	3.07499     	1               	;
 J-1057          	658.2016    	0.59516     	1               	;
 J-1058          	747.1807    	2.28144     	1               	;
 J-1059          	495.2451    	0.39677     	1               	;
 J-106           	601.8232    	0.19839     	1               	;
 J-1060          	753.325     	0.49597     	1               	;
 J-1061          	677.2653    	0.69435     	1               	;
 J-1062          	700.7161    	1.09113     	1               	;
 J-1064          	635.3159    	0.09919     	1               	;
 J-1065          	629.8476    	0.19839     	1               	;
 J-1066          	721.9253    	0.49597     	1               	;
 J-1067          	615.6715    	0.19839     	1               	;
 J-1068          	728.9692    	0.79355     	1               	;
 J-1069          	717.8571    	0.29758     	1               	;
 J-107           	604.1619    	0.59516     	1               	;
 J-1070          	645.9528    	0.79355     	1               	;
 J-1071          	615.6563    	0.09919     	1               	;
 J-1072          	644.5414    	0.69435     	1               	;
 J-1073          	677.791     	0.59516     	1               	;
 J-1074          	605.4557    	0.69435     	1               	;
 J-1075          	605.1552    	1.09919     	1               	;
 J-1077          	585.7421    	0.19839     	1               	;
 J-1078          	710.5143    	1.88467     	1               	;
 J-1079          	561.7202    	0.29758     	1               	;
 J-108           	684.6695    	0.09919     	1               	;
 J-1081          	611.4175    	0.89274     	1               	;
 J-1082          	591.7184    	0.09919     	1               	;
 J-1083          	704.1381    	0.49597     	1               	;
 J-1084          	706.9524    	2.08306     	1               	;
 J-1085          	579.3304    	1.09113     	1               	;
 J-1086          	668.5754    	0.19839     	1               	;
 J-1087          	741.639     	1.3887      	1               	;
 J-1089          	715.3901    	0.09919     	1               	;
 J-109           	647.6409    	0.19839     	1               	;
 J-1090          	726.6147    	0.59516     	1               	;
 J-1091          	574.2492    	0.39677     	1               	;
 J-1092          	609.7012    	0.39677     	1               	;
 J-1093          	713.9799    	0.59516     	1               	;
 J-1094          	723.6644    	1.68628     	1               	;
 J-1095          	755.3537    	0.19839     	1               	;
 J-1096          	554.9586    	0.09919     	1               	;
 J-1097          	615.1736    	0.09919     	1               	;
 J-1098          	640.0858    	1.09113     	1               	;
 J-1099          	746.852     	0.99193     	1               	;
 J-11            	762.3333    	1.09113     	1               	;
 J-110           	710.1191    	0.39677     	1               	;
 J-1100          	625.9       	1.09113     	1               	;
 J-1101          	672.9456    	0.69435     	1               	;
 J-1102          	711.5637    	0.29758     	1               	;
 J-1103          	708.1984    	0           	                	;
 J-1104          	648.162     	0.19839     	1               	;
 J-1105          	645.0951    	0.99193     	1               	;
 J-1106          	681.1017    	0           	                	;
 J-1107          	569.6641    	0.59516     	1               	;
 J-1108          	578.0508    	0.09919     	1               	;
 J-111           	701.1391    	0.99193     	1               	;
 J-1110          	598.4649    	2.77741     	1               	;
 J-1111          	777.1953    	0.39677     	1               	;
 J-1112          	774.701     	0.69435     	1               	;
 J-1113          	791.1915    	0.49597     	1               	;
 J-1114          	732.2073    	0.19839     	1               	;
 J-1115          	630.5209    	0.09919     	1               	;
 J-1116          	612.2832    	0           	                	;
 J-1117          	606.1337    	0.59516     	1               	;
 J-1118          	622.4172    	0           	                	;
 J-112           	574.1806    	0.19839     	1               	;
 J-1120          	724.7034    	0.29758     	1               	;
 J-1121          	630.5475    	0.09919     	1               	;
 J-1122          	541.8641    	0.09919     	1               	;
 J-1124          	657.0426    	0.39677     	1               	;
 J-1125          	716.808     	0.19839     	1               	;
 J-1126          	596.9184    	8.92739     	1               	;
 J-1128          	625.0231    	1.19032     	1               	;
 J-1129          	746.4306    	0.49597     	1               	;
 J-113           	611.6209    	1.88467     	1               	;
 J-1130          	636.8364    	0           	                	;
 J-1131          	584.5735    	0.09919     	1               	;
 J-1132          	714.3365    	0.19839     	1               	;
 J-1133          	604.1035    	0.69919     	1               	;
 J-1134          	672.2758    	0.09919     	1               	;
 J-1135          	712.0593    	0.39677     	1               	;
 J-1136          	628.5       	0.29758     	1               	;
 J-1137          	617.1149    	0.19839     	1               	;
 J-1138          	650.9661    	0.19839     	1               	;
 J-1139          	556.1342    	0.49597     	1               	;
 J-114           	663.3484    	0.39677     	1               	;
 J-1140          	714.5566    	0.39677     	1               	;
 J-1141          	710.6509    	0.09919     	1               	;
 J-1142          	653.2252    	0.59516     	1               	;
 J-1143          	558.0222    	0.49597     	1               	;
 J-1144          	702.7892    	0.89274     	1               	;
 J-1146          	685.4799    	0.39677     	1               	;
 J-1147          	667.519     	0.09919     	1               	;
 J-1148          	710.0444    	0.09942     	1               	;
 J-1149          	727.6072    	0.29758     	1               	;
 J-115           	663.0303    	0.09919     	1               	;
 J-1150          	643.8839    	0.79435     	1               	;
 J-1151          	747.5862    	0.49597     	1               	;
 J-1152          	773.9153    	2.8766      	1               	;
 J-1155          	600.3406    	0.89274     	1               	;
 J-1156          	633.1165    	0.79355     	1               	;
 J-1157          	649.7566    	0.39677     	1               	;
 J-1158          	589.6528    	1.09113     	1               	;
 J-1159          	771.67      	0.79355     	1               	;
 J-116           	735.968     	0.69435     	1               	;
 J-1160          	712.5314    	2.57902     	1               	;
 J-1161          	643.0078    	0.29758     	1               	;
 J-1163          	687.5768    	0.39677     	1               	;
 J-1164          	495.7536    	0.29758     	1               	;
 J-1165          	831.6912    	0           	                	;
 J-1166          	607.4159    	0.29758     	1               	;
 J-1167          	612.7264    	0.19839     	1               	;
 J-1168          	649.0894    	0.59516     	1               	;
 J-117           	722.6895    	0.49597     	1               	;
 J-1170          	644.7736    	0.09919     	1               	;
 J-1171          	658.4288    	0.09919     	1               	;
 J-1172          	568.1268    	0.09919     	1               	;
 J-1173          	713.4412    	0.39677     	1               	;
 J-1174          	777.8912    	0.29758     	1               	;
 J-1175          	631.8282    	1.88467     	1               	;
 J-1177          	680.1938    	0           	                	;
 J-1178          	744.2711    	0.69435     	1               	;
 J-1179          	594.4293    	0.39677     	1               	;
 J-118           	639.4573    	1.19032     	1               	;
 J-1181          	613.1696    	0.9371      	1               	;
 J-119           	643.2602    	0.9824      	1               	;
 J-12            	694.2159    	0.19839     	1               	;
 J-120           	687.4454    	0           	                	;
 J-121           	648.8206    	0.49597     	1               	;
 J-122           	714.1292    	0           	                	;
 J-123           	605.7701    	0           	                	;
 J-124           	645.8984    	0           	                	;
 J-125           	676.9       	0.99193     	1               	;
 J-127           	624.7692    	0           	                	;
 J-128           	792.7291    	0.59516     	1               	;
 J-129           	672.6558    	2.28144     	1               	;
 J-13            	644.6932    	1.4879      	1               	;
 J-130           	691.6839    	0.69435     	1               	;
 J-131           	707.3126    	0.29758     	1               	;
 J-132           	713.994     	0.09919     	1               	;
 J-133           	698.218     	0.39677     	1               	;
 J-134           	604.708     	0.29758     	1               	;
 J-135           	606.1379    	4.26531     	1               	;
 J-136           	636.5193    	0.49597     	1               	;
 J-137           	659.9323    	0.39677     	1               	;
 J-138           	909.9974    	0.79355     	1               	;
 J-139           	862.6712    	0.69435     	1               	;
 J-14            	711.6509    	0.39677     	1               	;
 J-140           	612.2427    	0.49597     	1               	;
 J-141           	633.4162    	0.09919     	1               	;
 J-142           	634.665     	0.39677     	1               	;
 J-143           	619.2891    	0.09919     	1               	;
 J-144           	653.1002    	3.37257     	1               	;
 J-145           	632.7707    	1.78548     	1               	;
 J-146           	611.086     	0.69435     	1               	;
 J-147           	662.5086    	0.39677     	1               	;
 J-148           	849.307     	6.73        	1               	;
 J-15            	750.8308    	1.68628     	1               	;
 J-150           	612.3819    	0.49597     	1               	;
 J-151           	588.9821    	0.49597     	1               	;
 J-152           	708.6478    	0.934       	1               	;
 J-153           	708.787     	1.19032     	1               	;
 J-154           	666.3448    	1.19032     	1               	;
 J-155           	653.7957    	1.28951     	1               	;
 J-156           	654.5442    	1.68628     	1               	;
 J-157           	646.4906    	3.67015     	1               	;
 J-158           	738.8563    	2.08306     	1               	;
 J-159           	603.6907    	0.79355     	1               	;
 J-16            	769.282     	0.99193     	1               	;
 J-160           	626.7819    	0.79355     	1               	;
 J-161           	681.4429    	1.88467     	1               	;
 J-162           	602.3052    	0.29758     	1               	;
 J-163           	725.8636    	0.69435     	1               	;
 J-164           	726.069     	0.29758     	1               	;
 J-165           	700.4938    	0.39677     	1               	;
 J-166           	709.0444    	1.88467     	1               	;
 J-167           	677.2443    	0.49597     	1               	;
 J-168           	598.006     	0.09919     	1               	;
 J-169           	641.8807    	0           	                	;
 J-17            	716.7334    	0.19839     	1               	;
 J-170           	693.7224    	0.19839     	1               	;
 J-171           	711.1542    	0.79355     	1               	;
 J-172           	721.4718    	0.59516     	1               	;
 J-173           	768.6279    	0.89274     	1               	;
 J-174           	767.4672    	0.29758     	1               	;
 J-176           	673.5       	0.79355     	1               	;
 J-177           	656.9023    	0.09919     	1               	;
 J-178           	644.6994    	0.09919     	1               	;
 J-179           	610.0296    	0.59516     	1               	;
 J-18            	635.3628    	0.49597     	1               	;
 J-180           	588.9431    	0.19839     	1               	;
 J-181           	598.6146    	0.09919     	1               	;
 J-182           	603.0784    	1.4879      	1               	;
 J-183           	666.4035    	0.19839     	1               	;
 J-184           	601.3887    	1.4879      	1               	;
 J-185           	620.436     	0.89274     	1               	;
 J-186           	735.0967    	0.99193     	1               	;
 J-187           	738.5       	2.38064     	1               	;
 J-188           	681.8433    	2.9758      	1               	;
 J-189           	625.6338    	0.59516     	1               	;
 J-19            	644.4664    	0.49597     	1               	;
 J-190           	747.9069    	0.49597     	1               	;
 J-191           	715.0172    	0.69435     	1               	;
 J-192           	722.2471    	2.08306     	1               	;
 J-193           	741.0279    	1.58709     	1               	;
 J-194           	649.4777    	0.09919     	1               	;
 J-195           	696.9888    	1.88467     	1               	;
 J-196           	596.2114    	0.39677     	1               	;
 J-197           	623.2432    	1.19032     	1               	;
 J-198           	736.7035    	1.3887      	1               	;
 J-199           	563.6126    	1.4879      	1               	;
 J-2             	562.6887    	0.19839     	1               	;
 J-20            	552.0521    	0.19839     	1               	;
 J-200           	610.4663    	0.19839     	1               	;
 J-201           	847.8558    	0.09919     	1               	;
 J-202           	808.5971    	0.39677     	1               	;
 J-203           	637.8       	0.19839     	1               	;
 J-204           	635.3       	1.4879      	1               	;
 J-205           	707.5856    	0.59516     	1               	;
 J-206           	702.4238    	2.47983     	1               	;
 J-207           	619.4175    	0.29758     	1               	;
 J-208           	703.5739    	0.39677     	1               	;
 J-209           	608.7908    	0.59516     	1               	;
 J-21            	665.9387    	0.29758     	1               	;
 J-210           	610.9571    	2.18225     	1               	;
 J-211           	603.8738    	0.99193     	1               	;
 J-212           	619.7254    	0.09919     	1               	;
 J-213           	745.9467    	0.39677     	1               	;
 J-214           	887.6212    	1.88467     	1               	;
 J-215           	582.9173    	2.38064     	1               	;
 J-216           	563.9501    	5.8524      	1               	;
 J-218           	561.5702    	0.59516     	1               	;
 J-219           	645.0297    	3.37257     	1               	;
 J-22            	762.5614    	3.86853     	1               	;
 J-220           	699.1549    	0.79355     	1               	;
 J-221           	692.7505    	1.3887      	1               	;
 J-222           	497.9438    	0.39677     	1               	;
 J-223           	505.6939    	0.59516     	1               	;
 J-224           	690.327     	0.29758     	1               	;
 J-225           	628.5043    	1.4879      	1               	;
 J-226           	737.2314    	1.19032     	1               	;
 J-227           	732.8675    	0.09919     	1               	;
 J-229           	704.6322    	0.39677     	1               	;
 J-23            	639.083     	0.49597     	1               	;
 J-230           	707.6707    	0.29758     	1               	;
 J-231           	647.6156    	0.99193     	1               	;
 J-232           	595.4229    	0.39677     	1               	;
 J-233           	616.8532    	0.49597     	1               	;
 J-234           	588.0125    	0.99193     	1               	;
 J-235           	628.8885    	2.28144     	1               	;
 J-236           	671.535     	0.29758     	1               	;
 J-237           	653.9114    	0.69435     	1               	;
 J-238           	648.4697    	0.29758     	1               	;
 J-239           	680.6202    	0.59516     	1               	;
 J-24            	624.9392    	3.76934     	1               	;
 J-240           	682.1551    	1.88467     	1               	;
 J-241           	608.9584    	0.49597     	1               	;
 J-242           	621.4553    	2.18225     	1               	;
 J-243           	759.8751    	1.19032     	1               	;
 J-244           	715.5887    	0.69435     	1               	;
 J-245           	677.0421    	0.49597     	1               	;
 J-246           	511.8955    	2.9758      	1               	;
 J-247           	603.852     	1.3887      	1               	;
 J-248           	711.834     	0.59516     	1               	;
 J-25            	778.7021    	0.39677     	1               	;
 J-250           	685.6833    	0.79355     	1               	;
 J-251           	604.0345    	0.79355     	1               	;
 J-252           	608.3363    	0.29758     	1               	;
 J-253           	579.4733    	2.9758      	1               	;
 J-254           	598.2992    	2.47983     	1               	;
 J-255           	637.4965    	0.99193     	1               	;
 J-256           	633.5881    	1.4879      	1               	;
 J-257           	522.2542    	0.49597     	1               	;
 J-259           	617.3533    	1.98386     	1               	;
 J-26            	564.14      	2.77741     	1               	;
 J-260           	608.6484    	0.39677     	1               	;
 J-261           	599.002     	0.79355     	1               	;
 J-262           	641.2799    	0.69435     	1               	;
 J-263           	682.4199    	0.49597     	1               	;
 J-264           	707.2658    	0.69435     	1               	;
 J-265           	621.6085    	0.69435     	1               	;
 J-266           	682.8554    	1.3887      	1               	;
 J-267           	682.8554    	0.29758     	1               	;
 J-268           	652.9332    	0           	                	;
 J-269           	599.1356    	0.09919     	1               	;
 J-27            	755.5303    	0.89274     	1               	;
 J-270           	687.913     	0.19839     	1               	;
 J-271           	730.7677    	0           	                	;
 J-272           	703.4162    	0.19839     	1               	;
 J-273           	692.0968    	0.09919     	1               	;
 J-274           	672.1285    	2.18225     	1               	;
 J-275           	675.7391    	2.28144     	1               	;
 J-276           	676.0945    	0           	                	;
 J-277           	768.9446    	1.68628     	1               	;
 J-278           	769.7       	0.29758     	1               	;
 J-279           	580.4327    	0.49597     	1               	;
 J-28            	730.4431    	0.09919     	1               	;
 J-280           	588.4568    	0.29758     	1               	;
 J-281           	686.4982    	2.18225     	1               	;
 J-282           	696.9827    	0.59516     	1               	;
 J-283           	605.9331    	0.19839     	1               	;
 J-284           	861.6499    	2.38064     	1               	;
 J-285           	684.4037    	1.09113     	1               	;
 J-286           	676.6451    	0.39677     	1               	;
 J-287           	717.3751    	0.79355     	1               	;
 J-288           	710.4232    	0.69435     	1               	;
 J-289           	696.9517    	0.29758     	1               	;
 J-29            	676.6455    	0.49597     	1               	;
 J-290           	719.2065    	0.09919     	1               	;
 J-292           	623.4103    	2.28144     	1               	;
 J-293           	604.4024    	0.79355     	1               	;
 J-294           	681.5641    	0.69435     	1               	;
 J-295           	678.5143    	0.09919     	1               	;
 J-296           	659.3872    	4.3645      	1               	;
 J-297           	689.0345    	0.39677     	1               	;
 J-298           	673.9366    	0.09919     	1               	;
 J-299           	791.4706    	1.88467     	1               	;
 J-3             	632.4719    	1.3887      	1               	;
 J-30            	693.0031    	0.49597     	1               	;
 J-300           	904.5153    	0           	                	;
 J-301           	704.6874    	0           	                	;
 J-302           	676.3519    	0.19839     	1               	;
 J-305           	688.1994    	2.18225     	1               	;
 J-306           	593.1504    	1.58709     	1               	;
 J-307           	592.3074    	0.39677     	1               	;
 J-308           	823.4805    	3.37257     	1               	;
 J-309           	729.0703    	1.4879      	1               	;
 J-31            	599.2139    	0.19839     	1               	;
 J-310           	642.5881    	0.09919     	1               	;
 J-311           	645.441     	0.29758     	1               	;
 J-312           	635.7       	0.39677     	1               	;
 J-313           	600.6613    	0.59516     	1               	;
 J-314           	706.1717    	1.4879      	1               	;
 J-315           	588.526     	1.58709     	1               	;
 J-316           	776.9002    	1.58709     	1               	;
 J-317           	783.4528    	0.19839     	1               	;
 J-318           	540.9474    	0.79355     	1               	;
 J-319           	624.7164    	0.39677     	1               	;
 J-32            	605.7258    	0           	                	;
 J-320           	640.5028    	0           	                	;
 J-321           	632.8       	0.19839     	1               	;
 J-322           	612.872     	0.19839     	1               	;
 J-323           	694.7704    	0.19839     	1               	;
 J-324           	655.2972    	0.19839     	1               	;
 J-325           	773.6       	0.19839     	1               	;
 J-326           	625.6768    	0.29758     	1               	;
 J-327           	569.2601    	0.09919     	1               	;
 J-328           	639.3054    	0           	                	;
 J-329           	703.4182    	0.29758     	1               	;
 J-33            	606.9388    	0.29758     	1               	;
 J-330           	703.174     	1.32        	1               	;
 J-331           	674.1402    	1.68628     	1               	;
 J-332           	623.5809    	2.77741     	1               	;
 J-333           	606.2262    	0.29758     	1               	;
 J-334           	611.5592    	0.39677     	1               	;
 J-335           	606.7282    	0.49597     	1               	;
 J-336           	584.2527    	0.99193     	1               	;
 J-337           	624.4868    	0.69435     	1               	;
 J-338           	611.5426    	1.19032     	1               	;
 J-339           	647.4761    	0.49597     	1               	;
 J-34            	669.8519    	0.79355     	1               	;
 J-340           	646.2952    	0.29758     	1               	;
 J-341           	706.8273    	0.29758     	1               	;
 J-342           	599.8493    	0.09919     	1               	;
 J-343           	589.2881    	0.49597     	1               	;
 J-344           	627.2134    	0.09919     	1               	;
 J-345           	602.4584    	0.29758     	1               	;
 J-346           	718.2536    	1.78548     	1               	;
 J-347           	681.5456    	0.59516     	1               	;
 J-348           	660.7567    	0           	                	;
 J-349           	734.773     	0           	                	;
 J-35            	637.2454    	0.29758     	1               	;
 J-350           	757.2843    	0.39677     	1               	;
 J-351           	623.7378    	0.29758     	1               	;
 J-352           	725.2       	0.09919     	1               	;
 J-353           	597.0511    	1.58709     	1               	;
 J-354           	611.9631    	0.19839     	1               	;
 J-355           	632.474     	0.79355     	1               	;
 J-356           	693.7875    	0.49597     	1               	;
 J-357           	663.8386    	0.59516     	1               	;
 J-358           	634.2772    	1.88467     	1               	;
 J-359           	668.1772    	1.68628     	1               	;
 J-36            	624.8083    	0.49597     	1               	;
 J-360           	506.3722    	1.19032     	1               	;
 J-361           	668.4097    	0.49597     	1               	;
 J-362           	665.2844    	2.18225     	1               	;
 J-363           	637.634     	1.28951     	1               	;
 J-364           	600.2007    	2.57902     	1               	;
 J-365           	855.7989    	1.88467     	1               	;
 J-366           	866.3344    	0.99193     	1               	;
 J-367           	648.9078    	0.19839     	1               	;
 J-368           	620.1267    	0.29758     	1               	;
 J-369           	669.037     	0.19839     	1               	;
 J-37            	588.4968    	1.3887      	1               	;
 J-370           	617.05      	0.19839     	1               	;
 J-371           	614.9632    	0.79355     	1               	;
 J-372           	655.9846    	2.57902     	1               	;
 J-373           	705.3415    	0.39677     	1               	;
 J-374           	610.8321    	0.89274     	1               	;
 J-375           	646.846     	3.76934     	1               	;
 J-376           	710.5951    	0.99193     	1               	;
 J-377           	700.2056    	1.09113     	1               	;
 J-378           	591.6161    	0.29758     	1               	;
 J-379           	568.9849    	0.89274     	1               	;
 J-38            	650.942     	0.49597     	1               	;
 J-380           	647.8464    	0.19839     	1               	;
 J-381           	623.4698    	0.29758     	1               	;
 J-382           	624.9822    	1.88467     	1               	;
 J-383           	626.9377    	0.69435     	1               	;
 J-384           	609.3885    	0.39677     	1               	;
 J-385           	630.7966    	0.49597     	1               	;
 J-388           	608.1321    	0.29758     	1               	;
 J-389           	585.4161    	1.09113     	1               	;
 J-39            	629.9617    	0           	                	;