[TITLE]

[JUNCTIONS]
 J-1                                 591.3036
 J-10                                666.0713
 J-100                               646.6844
 J-1001                              631.7787
 J-1002                              763.0834
 J-1003                              623.5001
 J-1004                              690.9448
 J-1005                              641.3607
 J-1006                              587.0445
 J-1007                              628.5558
 J-1008                              493.9612
 J-101                               775.5381
 J-1010                              725.1783
 J-1011                              600.7482
 J-1012                              727.4371
 J-1013                              609.0132
 J-1014                              614.2553
 J-1015                              616.9766
 J-1016                              631.2266
 J-1017                              630.3471
 J-1018                              614.0303
 J-1019                              575.0623
 J-102                               805.5351
 J-1020                              658.3006
 J-1021                              632.5563
 J-1022                              647.0989
 J-1023                              700.8723
 J-1024                              719.3944
 J-1025                              616.2443
 J-1026                              698.2537
 J-1027                              662.5314
 J-1028                              677.2000
 J-1029                              582.0026
 J-103                               581.6994
 J-1030                              598.8737
 J-1031                              734.1605
 J-1032                              706.5358
 J-1033                              751.9551
 J-1034                              702.3697
 J-1035                              706.5957
 J-1036                              740.6533
 J-1037                              737.8177
 J-1038                              730.3007
 J-1039                              665.3010
 J-104                               595.9457
 J-1041                              612.7277
 J-1042                              706.2294
 J-1044                              601.9385
 J-1045                              598.9500
 J-1046                              631.4045
 J-1047                              619.8885
 J-1048                              624.4884
 J-1049                              713.8885
 J-105                               685.1140
 J-1050                              700.9948
 J-1051                              613.3332
 J-1052                              735.9224
 J-1053                              604.0636
 J-1054                              579.2889
 J-1055                              685.7661
 J-1056                              582.8991
 J-1057                              658.2016
 J-1058                              747.1807
 J-1059                              495.2451
 J-106                               601.8232
 J-1060                              753.3250
 J-1061                              677.2653
 J-1062                              700.7161
 J-1064                              635.3159
 J-1065                              629.8476
 J-1066                              721.9253
 J-1067                              615.6715
 J-1068                              728.9692
 J-1069                              717.8571
 J-107                               604.1619
 J-1070                              645.9528
 J-1071                              615.6563
 J-1072                              644.5414
 J-1073                              677.7910
 J-1074                              605.4557
 J-1075                              605.1552
 J-1077                              585.7421
 J-1078                              710.5143
 J-1079                              561.7202
 J-108                               684.6695
 J-1081                              611.4175
 J-1082                              591.7184
 J-1083                              704.1381
 J-1084                              706.9524
 J-1085                              579.3304
 J-1086                              668.5754
 J-1087                              741.6390
 J-1089                              715.3901
 J-109                               647.6409
 J-1090                              726.6147
 J-1091                              574.2492
 J-1092                              609.7012
 J-1093                              713.9799
 J-1094                              723.6644
 J-1095                              755.3537
 J-1096                              554.9586
 J-1097                              615.1736
 J-1098                              640.0858
 J-1099                              746.8520
 J-11                                762.3333
 J-110                               710.1191
 J-1100                              625.9000
 J-1101                              672.9456
 J-1102                              711.5637
 J-1103                              708.1984
 J-1104                              648.1620
 J-1105                              645.0951
 J-1106                              681.1017
 J-1107                              569.6641
 J-1108                              578.0508
 J-111                               701.1391
 J-1110                              598.4649
 J-1111                              777.1953
 J-1112                              774.7010
 J-1113                              791.1915
 J-1114                              732.2073
 J-1115                              630.5209
 J-1116                              612.2832
 J-1117                              606.1337
 J-1118                              622.4172
 J-112                               574.1806
 J-1120                              724.7034
 J-1121                              630.5475
 J-1122                              541.8641
 J-1124                              657.0426
 J-1125                              716.8080
 J-1126                              596.9184
 J-1128                              625.0231
 J-1129                              746.4306
 J-113                               611.6209
 J-1130                              636.8364
 J-1131                              584.5735
 J-1132                              714.3365
 J-1133                              604.1035
 J-1134                              672.2758
 J-1135                              712.0593
 J-1136                              628.5000
 J-1137                              617.1149
 J-1138                              650.9661
 J-1139                              556.1342
 J-114                               663.3484
 J-1140                              714.5566
 J-1141                              710.6509
 J-1142                              653.2252
 J-1143                              558.0222
 J-1144                              702.7892
 J-1146                              685.4799
 J-1147                              667.5190
 J-1148                              710.0444
 J-1149                              727.6072
 J-115                               663.0303
 J-1150                              643.8839
 J-1151                              747.5862
 J-1152                              773.9153
 J-1155                              600.3406
 J-1156                              633.1165
 J-1157                              649.7566
 J-1158                              589.6528
 J-1159                              771.6700
 J-116                               735.9680
 J-1160                              712.5314
 J-1161                              643.0078
 J-1163                              687.5768
 J-1164                              495.7536
 J-1165                              831.6912
 J-1166                              607.4159
 J-1167                              612.7264
 J-1168                              649.0894
 J-117                               722.6895
 J-1170                              644.7736
 J-1171                              658.4288
 J-1172                              568.1268
 J-1173                              713.4412
 J-1174                              777.8912
 J-1175                              631.8282
 J-1177                              680.1938
 J-1178                              744.2711
 J-1179                              594.4293
 J-118                               639.4573
 J-1181                              613.1696
 J-119                               643.2602
 J-12                                694.2159
 J-120                               687.4454
 J-121                               648.8206
 J-122                               714.1292
 J-123                               605.7701
 J-124                               645.8984
 J-125                               676.9000
 J-127                               624.7692
 J-128                               792.7291
 J-129                               672.6558
 J-13                                644.6932
 J-130                               691.6839
 J-131                               707.3126
 J-132                               713.9940
 J-133                               698.2180
 J-134                               604.7080
 J-135                               606.1379
 J-136                               636.5193
 J-137                               659.9323
 J-138                               909.9974
 J-139                               862.6712
 J-14                                711.6509
 J-140                               612.2427
 J-141                               633.4162
 J-142                               634.6650
 J-143                               619.2891
 J-144                               653.1002
 J-145                               632.7707
 J-146                               611.0860
 J-147                               662.5086
 J-148                               849.3070
 J-15                                750.8308
 J-150                               612.3819
 J-151                               588.9821
 J-152                               708.6478
 J-153                               708.7870
 J-154                               666.3448
 J-155                               653.7957
 J-156                               654.5442
 J-157                               646.4906
 J-158                               738.8563
 J-159                               603.6907
 J-16                                769.2820
 J-160                               626.7819
 J-161                               681.4429
 J-162                               602.3052
 J-163                               725.8636
 J-164                               726.0690
 J-165                               700.4938
 J-166                               709.0444
 J-167                               677.2443
 J-168                               598.0060
 J-169                               641.8807
 J-17                                716.7334
 J-170                               693.7224
 J-171                               711.1542
 J-172                               721.4718
 J-173                               768.6279
 J-174                               767.4672
 J-176                               673.5000
 J-177                               656.9023
 J-178                               644.6994
 J-179                               610.0296
 J-18                                635.3628
 J-180                               588.9431
 J-181                               598.6146
 J-182                               603.0784
 J-183                               666.4035
 J-184                               601.3887
 J-185                               620.4360
 J-186                               735.0967
 J-187                               738.5000
 J-188                               681.8433
 J-189                               625.6338
 J-19                                644.4664
 J-190                               747.9069
 J-191                               715.0172
 J-192                               722.2471
 J-193                               741.0279
 J-194                               649.4777
 J-195                               696.9888
 J-196                               596.2114
 J-197                               623.2432
 J-198                               736.7035
 J-199                               563.6126
 J-2                                 562.6887
 J-20                                552.0521
 J-200                               610.4663
 J-201                               847.8558
 J-202                               808.5971
 J-203                               637.8000
 J-204                               635.3000
 J-205                               707.5856
 J-206                               702.4238
 J-207                               619.4175
 J-208                               703.5739
 J-209                               608.7908
 J-21                                665.9387
 J-210                               610.9571
 J-211                               603.8738
 J-212                               619.7254
 J-213                               745.9467
 J-214                               887.6212
 J-215                               582.9173
 J-216                               563.9501
 J-218                               561.5702
 J-219                               645.0297
 J-22                                762.5614
 J-220                               699.1549
 J-221                               692.7505
 J-222                               497.9438
 J-223                               505.6939
 J-224                               690.3270
 J-225                               628.5043
 J-226                               737.2314
 J-227                               732.8675
 J-229                               704.6322
 J-23                                639.0830
 J-230                               707.6707
 J-231                               647.6156
 J-232                               595.4229
 J-233                               616.8532
 J-234                               588.0125
 J-235                               628.8885
 J-236                               671.5350
 J-237                               653.9114
 J-238                               648.4697
 J-239                               680.6202
 J-24                                624.9392
 J-240                               682.1551
 J-241                               608.9584
 J-242                               621.4553
 J-243                               759.8751
 J-244                               715.5887
 J-245                               677.0421
 J-246                               511.8955
 J-247                               603.8520
 J-248                               711.8340
 J-25                                778.7021
 J-250                               685.6833
 J-251                               604.0345
 J-252                               608.3363
 J-253                               579.4733
 J-254                               598.2992
 J-255                               637.4965
 J-256                               633.5881
 J-257                               522.2542
 J-259                               617.3533
 J-26                                564.1400
 J-260                               608.6484
 J-261                               599.0020
 J-262                               641.2799
 J-263                               682.4199
 J-264                               707.2658
 J-265                               621.6085
 J-266                               682.8554
 J-267                               682.8554
 J-268                               652.9332
 J-269                               599.1356
 J-27                                755.5303
 J-270                               687.9130
 J-271                               730.7677
 J-272                               703.4162
 J-273                               692.0968
 J-274                               672.1285
 J-275                               675.7391
 J-276                               676.0945
 J-277                               768.9446
 J-278                               769.7000
 J-279                               580.4327
 J-28                                730.4431
 J-280                               588.4568
 J-281                               686.4982
 J-282                               696.9827
 J-283                               605.9331
 J-284                               861.6499
 J-285                               684.4037
 J-286                               676.6451
 J-287                               717.3751
 J-288                               710.4232
 J-289                               696.9517
 J-29                                676.6455
 J-290                               719.2065
 J-292                               623.4103
 J-293                               604.4024
 J-294                               681.5641
 J-295                               678.5143
 J-296                               659.3872
 J-297                               689.0345
 J-298                               673.9366
 J-299                               791.4706
 J-3                                 632.4719
 J-30                                693.0031
 J-300                               904.5153
 J-301                               704.6874
 J-302                               676.3519
 J-305                               688.1994
 J-306                               593.1504
 J-307                               592.3074
 J-308                               823.4805
 J-309                               729.0703
 J-31                                599.2139
 J-310                               642.5881
 J-311                               645.4410
 J-312                               635.7000
 J-313                               600.6613
 J-314                               706.1717
 J-315                               588.5260
 J-316                               776.9002
 J-317                               783.4528
 J-318                               540.9474
 J-319                               624.7164
 J-32                                605.7258
 J-320                               640.5028
 J-321                               632.8000
 J-322                               612.8720
 J-323                               694.7704
 J-324                               655.2972
 J-325                               773.6000
 J-326                               625.6768
 J-327                               569.2601
 J-328                               639.3054
 J-329                               703.4182
 J-33                                606.9388
 J-330                               703.1740
 J-331                               674.1402
 J-332                               623.5809
 J-333                               606.2262
 J-334                               611.5592
 J-335                               606.7282
 J-336                               584.2527
 J-337                               624.4868
 J-338                               611.5426
 J-339                               647.4761
 J-34                                669.8519
 J-340                               646.2952
 J-341                               706.8273
 J-342                               599.8493
 J-343                               589.2881
 J-344                               627.2134
 J-345                               602.4584
 J-346                               718.2536
 J-347                               681.5456
 J-348                               660.7567
 J-349                               734.7730
 J-35                                637.2454
 J-350                               757.2843
 J-351                               623.7378
 J-352                               725.2000
 J-353                               597.0511
 J-354                               611.9631
 J-355                               632.4740
 J-356                               693.7875
 J-357                               663.8386
 J-358                               634.2772
 J-359                               668.1772
 J-36                                624.8083
 J-360                               506.3722
 J-361                               668.4097
 J-362                               665.2844
 J-363                               637.6340
 J-364                               600.2007
 J-365                               855.7989
 J-366                               866.3344
 J-367                               648.9078
 J-368                               620.1267
 J-369                               669.0370
 J-37                                588.4968
 J-370                               617.0500
 J-371                               614.9632
 J-372                               655.9846
 J-373                               705.3415
 J-374                               610.8321
 J-375                               646.8460
 J-376                               710.5951
 J-377                               700.2056
 J-378                               591.6161
 J-379                               568.9849
 J-38                                650.9420
 J-380                               647.8464
 J-381                               623.4698
 J-382                               624.9822
 J-383                               626.9377
 J-384                               609.3885
 J-385                               630.7966
 J-388                               608.1321
 J-389                               585.4161
 J-39                                629.9617
 J-390                               703.3075
 J-391                               696.2503
 J-392                               723.0059
 J-393                               727.5984
 J-394                               673.4496
 J-395                               673.4570
 J-396                               581.1124
 J-397                               583.6144
 J-398                               626.9626
 J-399                               608.1533
 J-4                                 619.0275
 J-40                                687.4246
 J-400                               644.9550
 J-401                               644.9225
 J-402                               613.0478
 J-403                               778.8605
 J-404                               758.7696
 J-405                               627.1873
 J-406                               756.2397
 J-407                               746.3079
 J-408                               593.9484
 J-409                               647.0789
 J-41                                629.7076
 J-410                               628.0131
 J-411                               753.1793
 J-412                               753.9087
 J-413                               645.6361
 J-414                               587.5077
 J-416                               716.1846
 J-417                               715.8088
 J-418                               591.7025
 J-419                               566.3464
 J-42                                628.2645
 J-420                               789.4736
 J-421                               748.4708
 J-422                               619.0000
 J-423                               626.2000
 J-424                               707.2761
 J-425                               668.5519
 J-426                               678.8392
 J-427                               685.1021
 J-428                               598.8662
 J-429                               619.9907
 J-43                                574.0538
 J-430                               621.8019
 J-431                               615.3904
 J-432                               641.5590
 J-433                               706.6219
 J-438                               665.0615
 J-439                               619.3051
 J-44                                552.1916
 J-440                               604.6685
 J-441                               819.5856
 J-442                               588.9172
 J-443                               602.2629
 J-444                               679.2327
 J-445                               672.1411
 J-446                               602.8426
 J-448                               672.2966
 J-449                               650.4554
 J-44a                               590.9802
 J-45                                547.0018
 J-450                               775.8777
 J-451                               783.8708
 J-452                               726.8646
 J-454                               638.9655
 J-455                               623.7574
 J-456                               580.7949
 J-458                               535.4437
 J-459                               596.6558
 J-46                                633.7510
 J-460                               591.7325
 J-461                               624.4199
 J-462                               617.0089
 J-463                               670.4366
 J-464                               628.5895
 J-465                               604.8917
 J-466                               726.4530
 J-467                               728.4116
 J-468                               757.9211
 J-469                               674.4654
 J-47                                665.6931
 J-470                               660.9414
 J-471                               600.5287
 J-472                               694.4847
 J-473                               760.1270
 J-474                               754.0281
 J-475                               601.3648
 J-476                               624.2223
 J-477                               624.6442
 J-478                               648.3124
 J-479                               675.7218
 J-48                                649.5565
 J-480                               672.7556
 J-481                               586.8633
 J-482                               579.8575
 J-483                               674.2426
 J-484                               694.4570
 J-485                               724.1330
 J-486                               509.1428
 J-487                               637.4838
 J-488                               689.1049
 J-489                               713.6456
 J-49                                624.7430
 J-490                               611.4940
 J-491                               546.5082
 J-492                               654.2107
 J-493                               733.1357
 J-494                               730.1116
 J-495                               585.2917
 J-496                               588.7206
 J-497                               666.1231
 J-498                               726.8546
 J-499                               637.1137
 J-5                                 678.1836
 J-50                                724.9379
 J-500                               707.0516
 J-501                               621.7066
 J-502                               637.5995
 J-503                               686.3101
 J-504                               679.1860
 J-505                               760.1985
 J-506                               684.8284
 J-507                               742.6553
 J-508                               744.4146
 J-509                               638.3856
 J-51                                632.0706
 J-510                               619.6069
 J-511                               607.9927
 J-512                               696.4095
 J-513                               646.2301
 J-514                               623.0353
 J-515                               569.1434
 J-516                               507.4933
 J-517                               644.9971
 J-518                               644.3354
 J-519                               653.7893
 J-52                                626.7034
 J-520                               724.9089
 J-521                               608.3468
 J-522                               832.0355
 J-523                               605.9446
 J-524                               621.4481
 J-525                               641.8597
 J-526                               626.5873
 J-527                               745.5401
 J-528                               631.2123
 J-529                               638.1494
 J-53                                570.6832
 J-530                               647.9388
 J-531                               660.4887
 J-532                               683.7789
 J-533                               623.9921
 J-534                               646.9293
 J-535                               719.4872
 J-536                               784.6229
 J-537                               672.9020
 J-538                               700.3768
 J-539                               775.0811
 J-54                                553.2395
 J-540                               757.0358
 J-541                               749.3590
 J-542                               755.9953
 J-543                               790.2171
 J-545                               779.7974
 J-546                               784.4305
 J-547                               530.7134
 J-548                               706.1871
 J-549                               591.7561
 J-55                                594.0109
 J-551                               596.3168
 J-552                               547.1392
 J-553                               631.2357
 J-554                               633.6546
 J-555                               646.3563
 J-556                               725.6354
 J-557                               630.2359