[TITLE]


[JUNCTIONS]
;ID              	Elev        	Demand      	Pattern         
 J1              	98.49517301 	0           	                	;				
 J2              	101.926954  	13          	P3              	;				
 J3              	97.97790369 	13          	P3              	;				
 J4              	98.53005784 	0           	                	;				
 J5              	97.96883484 	0           	                	;				
 J6              	101.5432223 	0           	                	;				
 J7              	101.7550746 	0           	                	;				
 J8              	101.1733863 	1.4666      	P8              	;				
 J9              	98.2650333  	2.408       	P7              	;				
 J10             	99.55223048 	0           	                	;				
 J11             	100.7436634 	0           	                	;				
 J12             	99.00188963 	0           	                	;				
 J13             	102.2549725 	1.8         	P7              	;				
 J14             	108.6237881 	0           	                	;				
 J15             	101.7296044 	0           	                	;				
 J16             	100.9504363 	0.012092639 	P7              	;				
 J17             	99.00300953 	0.012092639 	P7              	;				
 J18             	102.4381656 	0.012092639 	P7              	;				
 J19             	101.2537923 	0           	                	;				
 J20             	101.8310319 	0.012092639 	P7              	;				
 J21             	102.3541365 	0           	                	;				
 J22             	102.024608  	0.012092639 	P7              	;				
 J23             	99.21745643 	0           	                	;				
 J24             	102.0762015 	0           	                	;				
 J25             	98.99243749 	0           	                	;				
 J26             	101.4735725 	0.012092639 	P7              	;				
 J27             	98.37536451 	0.012092639 	P7              	;				
 J28             	101.9256133 	0.012092639 	P7              	;				
 J29             	98.52460769 	0.012092639 	P7              	;				
 J30             	98.29017397 	0           	                	;				
 J31             	100.4721012 	0           	                	;				
 J32             	97.7080518  	0.012092639 	P7              	;				
 J33             	100.8085367 	0.012092639 	P7              	;				
 J34             	101.3735299 	0.012092639 	P7              	;				
 J35             	100.5006661 	0.012092639 	P7              	;				
 J36             	98.07162439 	0.012092639 	P7              	;				
 J37             	98.60924715 	0.012092639 	P7              	;				
 J38             	98.05068009 	0.012092639 	P7              	;				
 J39             	102.2508663 	0           	                	;				
 J40             	99.37478696 	0.012092639 	P7              	;				
 J41             	100.9348974 	0           	                	;				
 J42             	102.3716455 	0           	                	;				
 J43             	98.81492819 	0           	                	;				
 J44             	99.74360189 	0.012092639 	P7              	;				
 J45             	101.4119502 	0           	                	;				
 J46             	100.8635783 	0           	                	;				
 J47             	98.28868408 	0.125412    	P3              	;				
 J48             	99.28300996 	0.012092639 	P7              	;				
 J49             	100.2815102 	0           	                	;				
 J50             	102.0741756 	0.012092639 	P7              	;				
 J51             	102.3557792 	0           	                	;				
 J52             	99.14018149 	0.012092639 	P7              	;				
 J53             	98.18998903 	0           	                	;				
 J54             	99.91221839 	0.012092639 	P7              	;				
 J55             	97.95528028 	0.012092639 	P7              	;				
 J56             	99.7123026  	0           	                	;				
 J57             	101.0085663 	0           	                	;				
 J58             	101.5222921 	0.012092639 	P7              	;				
 J59             	98.7398831  	0.012092639 	P7              	;				
 J60             	99.3586627  	0           	                	;				
 J61             	99.89225237 	0.012092639 	P7              	;				
 J62             	100.1118176 	0.012092639 	P7              	;				
 J63             	100.0349243 	0           	                	;				
 J64             	101.5109431 	0.012092639 	P7              	;				
 J65             	99.51805589 	0           	                	;				
 J66             	100.7216893 	0           	                	;				
 J67             	99.9085196  	0.012092639 	P7              	;				
 J68             	98.40208072 	0           	                	;				
 J69             	98.6970597  	0           	                	;				
 J70             	101.1571361 	0.012092639 	P7              	;				
 J71             	101.9334676 	0.012092639 	P7              	;				
 J72             	99.03138964 	0.012092639 	P7              	;				
 J73             	101.3831487 	0           	                	;				
 J74             	100.7643423 	0.012092639 	P7              	;				
 J75             	102.1374439 	0.012092639 	P7              	;				
 J76             	97.89639579 	0           	                	;				
 J77             	99.27826926 	0.012092639 	P7              	;				
 J78             	98.43849977 	0.012092639 	P7              	;				
 J79             	98.22600091 	0.012092639 	P7              	;				
 J80             	99.66193565 	0.012092639 	P7              	;				
 J81             	102.0914604 	0.012092639 	P7              	;				
 J82             	101.0812926 	0.012092639 	P7              	;				
 J83             	98.77838773 	0           	                	;				
 J84             	100.2876042 	0.012092639 	P7              	;				
 J85             	97.51529157 	0.012092639 	P7              	;				
 J86             	99.83891355 	0           	                	;				
 J87             	100.332508  	0.012092639 	P7              	;				
 J88             	98.20922683 	0.012092639 	P7              	;				
 J89             	98.2978831  	0           	                	;				
 J90             	101.3371647 	0.012092639 	P7              	;				
 J91             	98.13151747 	0.012092639 	P7              	;				
 J92             	100.8527381 	0.012092639 	P7              	;				
 J93             	100.5629993 	0.012092639 	P7              	;				
 J94             	99.43065676 	0.012092639 	P7              	;				
 J95             	101.2304118 	0           	                	;				
 J96             	102.1227187 	0.012092639 	P7              	;				
 J97             	99.23058732 	0.012092639 	P7              	;				
 J98             	98.30478364 	0.012092639 	P7              	;				
 J99             	101.4706146 	0.012092639 	P7              	;				
 J100            	97.55928458 	0           	                	;				
 J101            	98.84470589 	0.012092639 	P7              	;				
 J102            	99.63506128 	0.012092639 	P7              	;				
 J103            	100.1977067 	0.012092639 	P7              	;				
 J104            	98.33983679 	0.012092639 	P7              	;				
 J105            	101.8220893 	0.012092639 	P7              	;				
 J106            	100.6275605 	0           	                	;				
 J107            	98.74804076 	0.012092639 	P7              	;				
 J108            	97.56665867 	0.012092639 	P7              	;				
 J109            	99.05768126 	0           	                	;				
 J110            	97.98599722 	0.012092639 	P7              	;				
 J111            	98.05255161 	0           	                	;				
 J112            	101.600405  	0.012092639 	P7              	;				
 J113            	102.4606576 	0           	                	;				
 J114            	97.61922601 	0.012092639 	P7              	;				
 J115            	98.96980877 	0           	                	;				
 J116            	100.5862397 	0.012092639 	P7              	;				
 J117            	101.6708307 	0.012092639 	P7              	;				
 J118            	98.14529219 	0.012092639 	P7              	;				
 J119            	97.830412   	0.012092639 	P7              	;				
 J120            	101.3611035 	0.012092639 	P7              	;				
 J121            	101.4775145 	0.012092639 	P7              	;				
 J122            	101.8851438 	0.012092639 	P7              	;				
 J123            	98.52161754 	0.012092639 	P7              	;				
 J124            	100.2918508 	0.012092639 	P7              	;				
 J125            	101.4251959 	0.012092639 	P7              	;				
 J126            	99.56623583 	0.012092639 	P7              	;				
 J127            	101.3211335 	0.012092639 	P7              	;				
 J128            	100.2427507 	0.012092639 	P7              	;				
 J129            	98.15082371 	0.012092639 	P7              	;				
 J130            	97.68708359 	0.012092639 	P7              	;				
 J131            	97.63267825 	0.012092639 	P7              	;				
 J132            	100.777015  	0.012092639 	P7              	;				
 J133            	99.64390441 	0.012092639 	P7              	;				
 J134            	98.31868551 	0.012092639 	P7              	;				
 J135            	101.8460876 	0.012092639 	P7              	;				
 J136            	102.2535581 	0.012092639 	P7              	;				
 J137            	98.92627519 	0.012092639 	P7              	;				
 J138            	100.0213345 	0.012092639 	P7              	;				
 J139            	102.4113606 	0.012092639 	P7              	;				
 J140            	99.79719272 	0.012092639 	P7              	;				
 J141            	101.242603  	0.012092639 	P7              	;				
 J142            	101.1314497 	0.012092639 	P7              	;				
 J143            	100.2052682 	0.012092639 	P7              	;				
 J144            	98.16195681 	0.012092639 	P7              	;				
 J145            	100.7766478 	0.012092639 	P7              	;				
 J146            	99.30049607 	0.012092639 	P7              	;				
 J147            	99.72530908 	0.012092639 	P7              	;				
 J148            	101.4432322 	0.012092639 	P7              	;				
 J149            	101.1159087 	0           	                	;				
 J150            	101.6978107 	0.012092639 	P7              	;				
 J151            	100.5403628 	0.012092639 	P7              	;				
 J152            	99.78342423 	0           	                	;				
 J153            	101.8229597 	0.012092639 	P7              	;				
 J154            	101.699597  	0           	                	;				
 J155            	99.57572623 	0           	                	;				
 J156            	100.90576   	0.012092639 	P7              	;				
 J157            	99.24412453 	0           	                	;				
 J158            	97.85617685 	0           	                	;				
 J159            	102.3913394 	0           	                	;				
 J160            	97.85334849 	0           	                	;				
 J161            	97.92140536 	0.012092639 	P7              	;				
 J162            	101.3803875 	0.012092639 	P7              	;				
 J163            	99.43412811 	0           	                	;				
 J164            	97.8151087  	0.012092639 	P7              	;				
 J165            	101.0004979 	0           	                	;				
 J166            	97.97210461 	0.012092639 	P7              	;				
 J167            	102.4556995 	0           	                	;				
 J168            	100.405046  	0.012092639 	P7              	;				
 J169            	102.1073759 	0.012092639 	P7              	;				
 J170            	98.92201514 	0.012092639 	P7              	;				
 J171            	100.4567424 	0           	                	;				
 J172            	97.5351623  	0.012092639 	P7              	;				
 J173            	101.5979299 	0           	                	;				
 J174            	98.90985393 	0.012092639 	P7              	;				
 J175            	100.0573917 	0.012092639 	P7              	;				
 J176            	102.1539869 	0.012092639 	P7              	;				
 J177            	98.55764389 	0           	                	;				
 J178            	101.489758  	0.012092639 	P7              	;				
 J179            	97.50919218 	0           	                	;				
 J180            	101.2742007 	0.012092639 	P7              	;				
 J181            	101.9248616 	0.012092639 	P7              	;				
 J182            	99.60202231 	0.012092639 	P7              	;				
 J183            	99.98215331 	0           	                	;				
 J184            	99.85282758 	0.012092639 	P7              	;				
 J185            	100.8098133 	0.012092639 	P7              	;				
 J186            	98.04185416 	0           	                	;				
 J187            	100.6539692 	0.012092639 	P7              	;				
 J188            	99.04633842 	0.012092639 	P7              	;				
 J189            	98.3508211  	0.012092639 	P7              	;				
 J190            	98.02286116 	0.012092639 	P7              	;				
 J191            	100.0332453 	0           	                	;				
 J192            	101.7910835 	0.012092639 	P7              	;				
 J193            	98.89728125 	0           	                	;				
 J194            	100.8462491 	0.012092639 	P7              	;				
 J195            	101.6215134 	0.012092639 	P7              	;				
 J196            	98.38516516 	0           	                	;				
 J197            	98.52349533 	0           	                	;				
 J198            	98.16952898 	0           	                	;				
 J199            	99.87233721 	0.012092639 	P7              	;				
 J200            	98.78944076 	0.012092639 	P7              	;				
 J201            	99.11402119 	0.012092639 	P7              	;				
 J202            	98.17147838 	0.012092639 	P7              	;				
 J203            	100.6714572 	0.012092639 	P7              	;				
 J204            	101.4085813 	0.012092639 	P7              	;				
 J205            	102.2309376 	0           	                	;				
 J206            	101.2651629 	0           	                	;				
 J207            	102.3115207 	0           	                	;				
 J208            	102.4875425 	0.012092639 	P7              	;				
 J209            	101.742208  	0.012092639 	P7              	;				
 J210            	97.78851631 	0.012092639 	P7              	;				
 J211            	101.7521103 	0.012092639 	P7              	;				
 J212            	99.78511772 	0.012092639 	P7              	;				
 J213            	97.9327184  	0           	                	;				
 J214            	100.1565269 	0.012092639 	P7              	;				
 J215            	101.8000551 	0           	                	;				
 J216            	100.3721449 	0           	                	;				
 J217            	101.6758013 	0           	                	;				
 J218            	97.538806   	0           	                	;				
 J219            	102.1939072 	0.012092639 	P7              	;				
 J220            	99.77714916 	0           	                	;				
 J221            	102.2751101 	0.012092639 	P7              	;				
 J222            	98.81362727 	0           	                	;				
 J223            	101.3226875 	0.012092639 	P7              	;				
 J224            	98.40626861 	0.012092639 	P7              	;				
 J225            	101.5038203 	0           	                	;				
 J226            	101.5878024 	0           	                	;				
 J227            	98.07902851 	0           	                	;				
 J228            	98.96751114 	0.012092639 	P7              	;				
 J229            	100.049239  	0.012092639 	P7              	;				
 J230            	101.7749082 	0           	                	;				
 J231            	98.69794393 	0.012092639 	P7              	;				
 J232            	100.8012192 	0           	                	;				
 J233            	101.1041044 	0           	                	;				
 J234            	99.5089027  	0.012092639 	P7              	;				
 J235            	99.27120112 	0           	                	;				
 J236            	99.07482417 	0           	                	;				
 J237            	99.69137832 	0.012092639 	P7              	;				
 J238            	102.1551415 	0           	                	;				
 J239            	99.84223665 	0.012092639 	P7              	;				
 J240            	100.2486734 	0.012092639 	P7              	;				
 J241            	98.49587075 	0.012092639 	P7              	;				
 J242            	100.0701674 	0.012092639 	P7              	;				
 J243            	100.0168035 	0.012092639 	P7              	;				
 J244            	98.85108239 	0           	                	;				
 J245            	100.575104  	0.012092639 	P7              	;				
 J246            	101.3566069 	0.012092639 	P7              	;				
 J247            	101.8869904 	0           	                	;				
 J248            	99.0940997  	0           	                	;				
 J249            	102.1713976 	0.012092639 	P7              	;				
 J250            	101.6933733 	0.012092639 	P7              	;				
 J251            	100.9566767 	0.012092639 	P7              	;				
 J252            	100.040876  	0.012092639 	P7              	;				
 J253            	99.4412773  	0           	                	;				
 J254            	98.90929907 	0           	                	;				
 J255            	98.06453983 	0.012092639 	P7              	;				
 J256            	101.8222674 	0.012092639 	P7              	;				
 J257            	98.14376884 	0           	                	;				
 J258            	100.4225916 	0           	                	;				
 J259            	100.5387514 	0           	                	;				
 J260            	98.63402298 	0           	                	;				
 J261            	97.85911091 	0.012092639 	P7              	;				
 J262            	99.96898023 	0.012092639 	P7              	;				
 J263            	98.34620361 	0.012092639 	P7              	;				
 J264            	100.7976507 	0.012092639 	P7              	;				
 J265            	100.5690422 	0.012092639 	P7              	;				
 J266            	102.429795  	0           	                	;				
 J267            	99.0386348  	0           	                	;				
 J268            	98.58873294 	0           	                	;				
 J269            	100.0528996 	0.012092639 	P7              	;				
 J270            	101.8217069 	0.012092639 	P7              	;				
 J271            	97.9822714  	0.012092639 	P7              	;				
 J272            	97.55375371 	0           	                	;				
 J273            	98.66322425 	0           	                	;				
 J274            	100.5780804 	0           	                	;				
 J275            	101.1562789 	0.012092639 	P7              	;				
 J276            	97.50379226 	0.012092639 	P7              	;				
 J277            	101.1900969 	0.012092639 	P7              	;				
 J278            	100.968939  	0.012092639 	P7              	;				
 J279            	102.3348345 	0           	                	;				
 J280            	99.77854432 	0.012092639 	P7              	;				
 J281            	98.1694495  	0           	                	;				
 J282            	101.9848519 	0.012092639 	P7              	;				
 J283            	98.7358141  	0           	                	;				
 J284            	100.0322581 	0           	                	;				
 J285            	101.3874182 	0.012092639 	P7              	;				
 J286            	102.4324318 	0.012092639 	P7              	;				
 J287            	97.95133331 	0           	                	;				
 J288            	101.3512932 	0.012092639 	P7              	;				
 J289            	100.5866398 	0.012092639 	P7              	;				
 J290            	100.7735684 	0           	                	;				
 J291            	101.5402207 	0.012092639 	P7              	;				
 J292            	99.3916365  	0           	                	;				
 J293            	99.23235196 	0           	                	;				
 J294            	98.60701382 	0.012092639 	P7              	;				
 J295            	98.37082577 	0.012092639 	P7              	;				
 J296            	101.4924938 	0           	                	;				
 J297            	99.42542849 	0.012092639 	P7              	;				
 J298            	97.54321176 	0           	                	;				
 J299            	97.57558692 	0           	                	;				
 J300            	99.32032428 	0.012092639 	P7              	;				
 J301            	101.6614049 	0           	                	;				
 J302            	100.5802251 	0.012092639 	P7              	;				
 J303            	100.0206002 	0           	                	;				
 J304            	98.65774847 	0           	                	;				
 J305            	100.0774952 	0.012092639 	P7              	;				
 J306            	100.7513435 	0.012092639 	P7              	;				
 J307            	99.55400939 	0.012092639 	P7              	;				
 J308            	101.6801266 	0           	                	;				
 J309            	97.69475674 	0           	                	;				
 J310            	100.1751457 	0.012092639 	P7              	;				
 J311            	102.1550648 	0.012092639 	P7              	;				
 J312            	99.46220072 	0.012092639 	P7              	;				
 J313            	97.93424096 	0.012092639 	P7              	;				
 J314            	100.5283514 	0           	                	;				
 J315            	98.81889613 	0           	                	;				
 J316            	100.8653773 	0           	                	;				
 J317            	99.94076985 	0           	                	;				
 J318            	97.73297201 	0           	                	;				
 J319            	101.2764508 	0.012092639 	P7              	;				
 J320            	98.31044237 	0           	                	;				
 J321            	100.5025658 	0           	                	;				
 J322            	101.3357063 	0           	                	;				
 J323            	97.50566135 	0.012092639 	P7              	;				
 J324            	98.30361126 	0           	                	;				
 J325            	98.49292277 	0.012092639 	P7              	;				
 J326            	98.43752776 	0           	                	;				
 J327            	102.1306911 	0           	                	;				
 J328            	102.180015  	0.012092639 	P7              	;				
 J329            	99.0830724  	0           	                	;				
 J330            	100.4613115 	0.012092639 	P7              	;				
 J331            	101.0694527 	0           	                	;				
 J332            	98.81849789 	0           	                	;				
 J333            	101.588291  	0           	                	;				
 J334            	101.279205  	0           	                	;				
 J335            	98.06186278 	0.012092639 	P7              	;				
 J336            	97.9676821  	0.012092639 	P7              	;				
 J337            	97.97012157 	0           	                	;				
 J338            	97.60742462 	0           	                	;				
 J339            	99.92348286 	0           	                	;				
 J340            	99.44641046 	0           	                	;				
 J341            	100.1777215 	0.012092639 	P7              	;				
 J342            	100.1461266 	0           	                	;				
 J343            	100.7143229 	0           	                	;				
 J344            	102.4239672 	0.012092639 	P7              	;				
 J345            	99.90024281 	0.012092639 	P7              	;				
 J346            	99.7096702  	0           	                	;				
 J347            	97.57887134 	0.012092639 	P7              	;				
 J348            	98.72061248 	0.012092639 	P7              	;				
 J349            	101.5780596 	0.012092639 	P7              	;				
 J350            	100.3827496 	0.012092639 	P7              	;				
 J351            	98.92613983 	0.012092639 	P7              	;				
 J352            	97.90500935 	0.012092639 	P7              	;				
 J353            	100.8102749 	0           	                	;				
 J354            	102.0254382 	0           	                	;				
 J355            	99.8886527  	0           	                	;				
 J356            	97.62676047 	0.012092639 	P7              	;				
 J357            	101.1625119 	0.012092639 	P7              	;				
 J358            	102.2788808 	0           	                	;				
 J359            	97.82455068 	0.012092639 	P7              	;				
 J360            	98.38371553 	0           	                	;				
 J361            	99.68805569 	0.012092639 	P7              	;				
 J362            	98.61074705 	0.012092639 	P7              	;				
 J363            	100.2003095 	0           	                	;				
 J364            	100.0072812 	0.012092639 	P7              	;				
 J365            	101.3993559 	0           	                	;				
 J366            	100.0991195 	0           	                	;				
 J367            	101.7697012 	0.012092639 	P7              	;				
 J368            	101.5850166 	0           	                	;				
 J369            	100.0910214 	0.012092639 	P7              	;				
 J370            	101.5659024 	0.012092639 	P7              	;				
 J371            	99.05078973 	0           	                	;				
 J372            	102.4806915 	0           	                	;				
 J373            	101.0257153 	0.012092639 	P7              	;				
 J374            	101.2278712 	0           	                	;				
 J375            	100.6384389 	0.012092639 	P7              	;				
 J376            	99.02164351 	0.012092639 	P7              	;				
 J377            	100.5956384 	0.012092639 	P7              	;				
 J378            	100.5247535 	0           	                	;				
 J379            	102.1674468 	0.012092639 	P7              	;				
 J380            	100.560983  	0.012092639 	P7              	;				
 J381            	100.8538059 	0           	                	;				
 J382            	101.4605167 	0.012092639 	P7              	;				
 J383            	101.8077786 	0.012092639 	P7              	;				
 J384            	100.3516788 	0.012092639 	P7              	;				
 J385            	102.4387666 	0.012092639 	P7              	;				
 J386            	98.74836243 	0.012092639 	P7              	;				
 J387            	99.09760312 	0           	                	;				
 J388            	99.22940396 	0           	                	;				
 J389            	100.1821661 	0.012092639 	P7              	;				
 J390            	99.34384859 	0.012092639 	P7              	;				
 J391            	100.0830908 	0           	                	;				
 J392            	98.77096344 	0.012092639 	P7              	;				
 J393            	99.73643406 	0.012092639 	P7              	;				
 J394            	99.9642151  	0.012092639 	P7              	;				
 J395            	98.0832652  	0.012092639 	P7              	;				
 J396            	99.60227968 	0.012092639 	P7              	;				
 J397            	100.577006  	0.012092639 	P7              	;				
 J398            	97.69334848 	0.012092639 	P7              	;				
 J399            	99.84414467 	0           	                	;				
 J400            	100.3184754 	0           	                	;				
 J401            	98.27938617 	0.012092639 	P7              	;				
 J402            	97.76409373 	0.012092639 	P7              	;				
 J403            	99.14982732 	0           	                	;				
 J404            	101.9870727 	0.012092639 	P7              	;				
 J405            	98.9120156  	0.012092639 	P7              	;				
 J406            	100.1354782 	0           	                	;				
 J407            	97.8837195  	0           	                	;				
 J408            	98.41946839 	0.012092639 	P7              	;				
 J409            	97.88048519 	0.012092639 	P7              	;				
 J410            	102.3144426 	0.012092639 	P7              	;				
 J411            	98.37530231 	0           	                	;				
 J412            	100.9223301 	0           	                	;				
 J413            	102.0972794 	0           	                	;				
 J414            	99.51190296 	0           	                	;				
 J415            	98.95756113 	0.012092639 	P7              	;				
 J416            	100.0265091 	0           	                	;				
 J417            	98.86408764 	0           	                	;				
 J418            	100.8413323 	0           	                	;				
 J419            	100.632249  	0           	                	;				
 J420            	98.01132513 	0           	                	;				
 J421            	101.5914184 	0.012092639 	P7              	;				
 J422            	98.96261883 	0           	                	;				
 J423            	102.2161963 	0           	                	;				
 J424            	100.8808605 	0.012092639 	P7              	;				
 J425            	99.10425683 	0           	                	;				
 J426            	97.95887572 	0.012092639 	P7              	;				
 J427            	100.7750346 	0.012092639 	P7              	;				
 J428            	101.9865408 	0           	                	;				
 J429            	99.60706909 	0.012092639 	P7              	;				
 J430            	98.72850638 	0           	                	;				
 J431            	99.52714332 	0           	                	;				
 J432            	101.7498396 	0           	                	;				
 J433            	102.1215932 	0.012092639 	P7              	;				
 J434            	100.906103  	0.012092639 	P7              	;				
 J435            	98.16978407 	0           	                	;				
 J436            	98.66063058 	0.012092639 	P7              	;				
 J437            	101.1318426 	0.012092639 	P7              	;				
 J438            	99.04246355 	0           	                	;				
 J439            	99.45373181 	0           	                	;				
 J440            	99.3276695  	0           	                	;				
 J441            	101.0397933 	0.012092639 	P7              	;				
 J442            	101.6625329 	0           	                	;				
 J443            	101.5120442 	0           	                	;				
 J444            	98.84108595 	0.012092639 	P7              	;				
 J445            	97.58429294 	0.012092639 	P7              	;				
 J446            	100.3312975 	0           	                	;				