[TITLE]

[JUNCTIONS]
 J-1                                 715.4852
 J-10                                802.0012
 J-100                               639.9124
 J-101                               700.7612
 J-102                               621.9796
 J-103                               621.7491
 J-104                               619.5659
 J-105                               626.0460
 J-106                               665.4579
 J-107                               739.5731
 J-108                               623.8171
 J-109                               620.7628
 J-11                                698.2571
 J-110                               638.4283
 J-111                               638.0323
 J-112                               634.5699
 J-113                               673.9019
 J-114                               668.1563
 J-115                               667.7916
 J-116                               642.2203
 J-117                               633.1500
 J-118                               635.4484
 J-119                               643.2867
 J-12                                623.6611
 J-120                               619.5771
 J-121                               622.7620
 J-122                               643.6099
 J-123                               636.9052
 J-124                               697.7371
 J-125                               705.3508
 J-126                               723.2243
 J-127                               631.7180
 J-128                               621.9003
 J-129                               719.0187
 J-13                                634.5547
 J-130                               704.8419
 J-131                               658.4427
 J-132                               680.4995
 J-133                               759.3060
 J-134                               725.8531
 J-135                               649.1763
 J-136                               643.7571
 J-137                               636.6516
 J-138                               645.9891
 J-139                               620.0699
 J-13a                               905.1796
 J-13b                               622.2595
 J-14                                806.4268
 J-140                               619.9971
 J-141                               783.2603
 J-142                               625.2731
 J-143                               627.1508
 J-144                               634.4019
 J-145                               620.4268
 J-146                               699.6443
 J-147                               624.8555
 J-148                               625.2947
 J-149                               802.4315
 J-15                                824.0820
 J-150                               925.8755
 J-151                               643.1187
 J-152                               626.4683
 J-153                               642.0460
 J-154                               642.1812
 J-155                               677.2571
 J-156                               662.3964
 J-157                               650.4459
 J-158                               655.7643
 J-159                               650.8203
 J-16                                  0.0000
 J-160                               679.6804
 J-161                               661.5947
 J-162                               639.3771
 J-163                               638.1492
 J-164                               641.2747
 J-165                               645.2203
 J-166                               756.6212
 J-167                               634.6635
 J-168                               641.9099
 J-169                               643.7996
 J-17                                929.6475
 J-170                               820.3596
 J-171                               848.0195
 J-172                               742.7131
 J-173                               620.3660
 J-174                               621.6083
 J-175                               647.8956
 J-176                               634.0347
 J-177                               633.8099
 J-178                               747.5828
 J-179                               760.3187
 J-18                                622.9932
 J-180                               682.7932
 J-181                               687.1787
 J-182                               824.4644
 J-183                               856.4940
 J-184                               621.5667
 J-185                               621.5443
 J-186                               720.7003
 J-187                               639.6196
 J-188                               796.6956
 J-189                               666.0995
 J-19                                757.3187
 J-190                               701.4459
 J-191                               641.3740
 J-192                               642.4116
 J-193                               641.4659
 J-194                               628.7339
 J-195                               626.0795
 J-196                               634.2723
 J-197                               626.5443
 J-198                               636.4371
 J-199                               636.7916
 J-2                                 673.2180
 J-20                                698.4780
 J-200                               630.3051
 J-201                               619.5659
 J-202                               709.2067
 J-203                               725.2227
 J-204                               628.9644
 J-205                               699.3060
 J-206                               681.7131
 J-207                               678.6539
 J-208                               666.5380
 J-209                               659.0908
 J-21                                708.1627
 J-210                               853.2419
 J-211                               854.3372
 J-212                               638.1851
 J-213                               656.6124
 J-214                               632.3563
 J-215                               649.5491
 J-216                               627.7795
 J-217                               628.4451
 J-218                               630.6915
 J-219                               625.7036
 J-22                                694.0300
 J-220                               624.0923
 J-221                               623.5667
 J-222                               623.5532
 J-223                               825.7307
 J-224                               830.5844
 J-225                               640.9227
 J-226                               621.5916
 J-227                               634.6251
 J-228                               624.4827
 J-229                               624.8491
 J-23                                730.4803
 J-230                               634.6667
 J-231                               772.9595
 J-232                               619.5659
 J-233                               679.1907
 J-234                               642.1411
 J-235                               768.9000
 J-236                               766.6923
 J-237                               636.9443
 J-238                               649.2731
 J-239                               647.6891
 J-24                                628.3411
 J-240                               743.1451
 J-241                               740.7947
 J-242                               622.4579
 J-243                               628.3467
 J-244                               638.3076
 J-245                               619.5659
 J-246                               619.5659
 J-247                               734.9108
 J-248                               775.5283
 J-249                               649.4484
 J-25                                624.9899
 J-250                               649.7852
 J-251                               636.8812
 J-252                               647.7612
 J-253                               674.4420
 J-254                               700.9420
 J-255                               622.3483
 J-256                               620.6779
 J-257                               672.4083
 J-258                               672.6219
 J-259                               627.3284
 J-26                                619.5667
 J-260                               651.8707
 J-261                               632.7419
 J-262                               621.7139
 J-263                               626.3812
 J-264                               724.3875
 J-265                               632.9587
 J-266                               645.2411
 J-267                               659.8323
 J-268                               688.4003
 J-269                               704.7443
 J-27                                638.9355
 J-270                               722.2388
 J-271                               629.1467
 J-272                               621.6811
 J-273                               621.9075
 J-274                               641.8707
 J-275                               632.3419
 J-276                               792.1003
 J-277                               635.4196
 J-278                               621.1732
 J-279                               773.4000
 J-28                                645.0051
 J-280                               633.6492
 J-281                               670.6931
 J-282                               641.4716
 J-283                               641.7115
 J-284                               649.2083
 J-285                               625.1859
 J-286                               624.2819
 J-287                               623.0275
 J-288                               674.7755
 J-289                               669.4644
 J-29                                673.1644
 J-290                               637.0323
 J-291                               675.3875
 J-292                               619.5659
 J-293                               619.5659
 J-294                               695.4011
 J-295                               697.1075
 J-296                               639.4467
 J-297                               706.3000
 J-298                               671.4539
 J-299                               701.2579
 J-3                                 625.1539
 J-30                                654.8676
 J-300                               672.3019
 J-301                               673.6763
 J-302                               648.1140
 J-303                               649.6779
 J-304                               628.8939
 J-305                               619.5659
 J-306                               702.9564
 J-307                               706.8380
 J-308                               619.5955
 J-309                               644.3588
 J-31                                671.4747
 J-310                               645.0756
 J-311                               631.7491
 J-312                               767.0331
 J-313                               621.5923
 J-314                               624.8436
 J-315                               651.6107
 J-316                               624.7635
 J-317                               631.3531
 J-318                               702.1635
 J-319                               703.6132
 J-32                                729.4803
 J-320                               707.7563
 J-321                               646.5267
 J-322                               648.8923
 J-323                               709.7499
 J-325                               822.0939
 J-326                               637.3979
 J-327                               627.4724
 J-328                               620.2811
 J-329                               642.3228
 J-33                                623.2227
 J-330                               641.4852
 J-331                               687.4323
 J-332                               683.9395
 J-333                               733.1179
 J-334                               752.2388
 J-335                               665.8627
 J-336                               638.5355
 J-337                               720.5004
 J-338                               672.2964
 J-339                               647.9404
 J-34                                623.2571
 J-342                               742.7507
 J-343                               671.5515
 J-344                               658.3691
 J-345                               620.3660
 J-346                               617.0723
 J-347                               617.5627
 J-348                               644.4995
 J-35                                641.9963
 J-351                               651.4875
 J-352                               647.4651
 J-353                               654.0419
 J-354                               679.9059
 J-355                               631.7252
 J-356                               632.4044
 J-357                               633.4628
 J-358                               622.9716
 J-359                               672.0372
 J-36                                641.5731
 J-360                               672.9907
 J-361                               700.4203
 J-362                               704.5275
 J-363                               713.3715
 J-364                               785.9547
 J-365                               718.4435
 J-366                               713.9587
 J-367                               675.7172
 J-368                               703.0571
 J-369                               677.3292
 J-37                                778.0251
 J-370                               711.2803
 J-371                               722.1387
 J-372                               633.3907
 J-373                               622.5988
 J-374                               654.6307
 J-375                               627.8051
 J-376                               622.0828
 J-377                               627.9515
 J-378                               621.2100
 J-379                               628.2307
 J-38                                798.7147
 J-380                               629.3820
 J-381                               642.3707
 J-382                               626.0771
 J-383                               690.3243
 J-384                               691.2955
 J-385                               659.2795
 J-386                               658.7419
 J-39                                629.9371
 J-390                               705.2139
 J-391                               631.4395
 J-392                               657.8019
 J-393                               619.5659
 J-394                               641.0411
 J-395                               677.7795
 J-396                               680.9340
 J-397                               649.4067
 J-398                               636.2708
 J-399                               643.9188
 J-4                                 802.2515
 J-40                                633.3843
 J-400                               630.6492
 J-401                               630.6348
 J-402                               656.6740
 J-403                               644.3531
 J-404                               643.2203
 J-405                               663.7971
 J-406                               667.7028
 J-407                               642.0779
 J-408                               649.6011
 J-409                               622.0139
 J-41                                636.7147
 J-410                               765.8331
 J-411                               800.4000
 J-412                               641.9659
 J-413                               702.3291
 J-414                               637.1619
 J-415                               637.9011
 J-416                               629.4636
 J-417                               676.7579
 J-418                               655.1292
 J-419                               710.4412
 J-42                                627.6699
 J-420                               627.3051
 J-421                               721.4868
 J-422                               643.8099
 J-423                               640.6603
 J-424                               634.7307
 J-425                               635.2659
 J-426                               647.8491
 J-427                               624.2459
 J-428                               648.2260
 J-429                               636.7548
 J-43                                640.7235
 J-430                               626.5219
 J-431                               629.0859
 J-432                               622.5099
 J-433                               663.2595
 J-434                               639.1940
 J-435                               619.9139
 J-436                               619.5659
 J-437                               624.3403
 J-438                               626.0684
 J-439                               630.4547
 J-44                                642.6459
 J-440                               624.4771
 J-441                               644.0187
 J-443                               646.9315
 J-444                               633.4780
 J-445                               653.1531
 J-446                               756.1692
 J-447                               626.5244
 J-448                               633.1331
 J-449                               636.6964
 J-45                                632.0723
 J-450                               623.3604
 J-451                               666.0451
 J-452                               704.3220
 J-453                               767.0004
 J-454                               652.8163
 J-455                               632.7260
 J-456                               669.1787
 J-457                               628.1035
 J-458                               626.8964
 J-459                               663.5891
 J-46                                726.6171
 J-460                               695.4283
 J-461                               624.2227
 J-462                               645.3179
 J-463                               878.8331
 J-464                               788.2731
 J-465                               619.5659
 J-466                               623.4731
 J-467                               627.0123
 J-468                               718.6923
 J-469                               619.5659
 J-47                                643.2603
 J-470                               805.9251
 J-471                               627.1724
 J-472                               620.3995
 J-473                               623.4659
 J-474                               643.4315
 J-475                               643.5084
 J-476                               708.1868
 J-477                               713.2883
 J-478                               775.1000
 J-479                               659.7947
 J-48                                668.6740
 J-480                               619.5659
 J-481                               622.4412
 J-482                               646.7548
 J-483                               640.7484
 J-484                               650.1843
 J-485                               629.0547
 J-486                               628.6227
 J-487                               641.5947
 J-488                               641.5635
 J-489                               630.8467
 J-49                                647.8347
 J-490                               632.1572
 J-491                               634.0507
 J-492                               802.2659
 J-493                               627.6891
 J-494                               691.9780
 J-495                               626.5236
 J-497                               677.9547
 J-498                               708.0483
 J-499                               624.3083
 J-5                                 631.5291
 J-50                                682.0883
 J-501                               621.4547
 J-502                               656.0659
 J-504                               699.5908
 J-505                               695.0779
 J-506                               819.5427
 J-507                               641.9651
 J-508                               643.9603
 J-509                               622.6563
 J-51                                641.2427
 J-510                               621.9675
 J-511                               620.3660
 J-512                               621.7043
 J-513                               649.5355
 J-514                               782.8547
 J-515                               728.8757
 J-516                               725.8000
 J-517                               675.4188
 J-518                               623.1796
 J-52                                644.8956
 J-521                               736.2000
 J-522                               708.3784
 J-523                               616.3660
 J-524                               620.5635
 J-525                               633.3459
 J-526                               652.3163
 J-527                               760.8060
 J-528                               628.5443
 J-529                               650.0443
 J-53                                620.6132
 J-530                               649.5540
 J-531                               636.5435
 J-532                               631.9995
 J-533                               643.0251
 J-534                               623.6219
 J-535                               669.9547
 J-537                               694.6555
 J-538                               626.5475
 J-539                               640.4467
 J-54                                620.5084
 J-540                               751.0291
 J-541                               646.4235
 J-542                               628.4531
 J-543                               703.0659
 J-544                               732.9211
 J-545                               622.0764
 J-546                               624.4611
 J-547                               626.6044
 J-548                               625.4819
 J-549                               648.6723
 J-55                                798.3163
 J-550                               648.2971
 J-551                               645.0179
 J-552                               643.4291
 J-553                               771.3043
 J-554                               619.7731
 J-555                               624.0251
 J-556                               646.4979
 J-557                               723.2000
 J-558                               722.6000
 J-559                               637.1740
 J-56                                647.1755
 J-560                               619.5659
 J-561                               620.3660
 J-562                               749.0468
 J-563                               748.4547
 J-564                               692.4276
 J-565                               620.8284
 J-566                               624.6075
 J-567                               675.0771
 J-569                               629.2891
 J-57                                621.7907
 J-570                               626.9027
 J-571                               659.6580
 J-572                               673.1644
 J-573                               636.7971
 J-574                               622.9891
 J-575                               622.0803
 J-576                               624.0236
 J-577                               624.3972
 J-578                               638.4771
 J-579                               704.0844
 J-58                                621.0867
 J-580                               655.0051
 J-581                               781.5483
 J-582                               635.0787
 J-583                               633.0211
 J-584                               630.2612
 J-585                               620.9955
 J-586                               632.2404
 J-588                               625.1508
 J-589                               619.9163
 J-59                                640.6356
 J-590                               650.7659
 J-591                               703.3723
 J-592                               632.9523
 J-593                               681.1307
 J-594                               647.2115
 J-595                               649.4276
 J-596                               648.9971
 J-597                               626.1147
 J-598                               623.7355
 J-599                               626.6371
 J-6                                 773.2700
 J-60                                623.5676
 J-600                               619.5659
 J-601                               650.5571
 J-602                               655.2955
 J-603                               648.0435
 J-604                               644.7491
 J-605                               625.4036
 J-606                               636.3939
 J-607                               720.4083
 J-609                               695.1643
 J-61                                623.4611
 J-611                               705.4531
 J-612                               665.3660
 J-613                               645.5507
 J-614                               649.2468
 J-615                               646.5524
 J-616                               697.2963
 J-617                               762.5787
 J-618                               625.9083
 J-619                               631.6683
 J-62                                630.4171
 J-620                               740.3323
 J-621                               624.4788
 J-622                               627.9699
 J-623                               644.8987
 J-624                               642.0955
 J-625                               676.7316
 J-626                               718.7036
 J-627                               643.6075
 J-628                               667.9716
 J-629                               744.6723
 J-63                                619.5659
 J-630                               621.4659
 J-631                               626.5587
 J-632                               642.9515
 J-633                               641.2123
 J-634                               626.5443
 J-635                               625.1635
 J-636                               776.6011
 J-637                               626.6531
 J-638                               640.4003
 J-639                               638.7659
 J-64                                651.4515
 J-640                               712.5179
 J-641                               752.3419
 J-642                               632.3395
 J-643                               629.7164
 J-644                               665.4299
 J-645                               650.4675
 J-646                               645.1083
 J-647                               623.6747
 J-648                               645.8491
 J-649                               630.8259
 J-65                                642.9899
 J-650                               621.7531
 J-651                               691.8676
 J-652                               640.5923
 J-653                               631.5099
 J-654                               644.7620
 J-655                               640.5620
 J-656                               646.7219
 J-657                               640.3660
 J-658                               642.0283
 J-659                               629.2507
 J-66                                623.3051
 J-660                               630.3068
 J-661                               634.2651
 J-662                               622.9987
 J-663                               646.7883
 J-664                               633.4332
 J-665                               646.7996
 J-666                               644.7939
 J-667                               682.4235
 J-668                               640.9459
 J-669                               623.9211
 J-67                                625.3187
 J-671                               643.1107
 J-672                               689.8787
 J-673                               634.7363
 J-674                               631.0491
 J-675                               636.3979
 J-676                               692.7484
 J-677                               755.2964
 J-678                               619.5659
 J-679                               642.5867
 J-68                                638.8820
 J-680                               646.5612
 J-681                               622.3571
 J-682                               658.7692
 J-683                               672.5739
 J-684                               629.3083
 J-686                               823.5051
 J-687                               684.6724
 J-688                               688.7011
 J-689                               633.8395
 J-69                                639.3979
 J-690                               642.5795
 J-691                               707.3699
 J-692                               724.8939
 J-693                               723.1740
 J-694                               724.0859
 J-695                               619.7491
 J-696                               626.0875
 J-698                               642.2411
 J-699                               623.6771
 J-7                                 802.8995
 J-70                                767.9363
 J-700                               622.9868
 J-701                               633.7011
 J-702                               627.0099