[TITLE]
Global Water Full network - Peak Day (Avg * 1.9)

[JUNCTIONS]
;ID              	Elev        	Demand      	Pattern         
 208             	1164        	0           	                	;
 209             	1171        	0           	                	;
 210             	1173        	30.23       	                	;
 211             	1172        	0           	                	;
 212             	1175        	0           	                	;
 213             	1171        	0           	                	;
 214             	1166        	0           	                	;
 215             	1171        	0           	                	;
 216             	1173        	0           	                	;
 217             	1170        	0           	                	;
 218             	1171        	0           	                	;
 219             	1175        	0           	                	;
 220             	1161        	0           	                	;
 221             	1171        	0           	                	;
 222             	1175        	0           	                	;
 223             	1170        	0           	                	;
 224             	1162        	0           	                	;
 225             	1170        	0           	                	;
 226             	1175        	0           	                	;
 227             	1164        	0           	                	;
 228             	1163        	35.87       	                	;
 229             	1173        	0           	                	;
 230             	1170        	0           	                	;
 231             	1166        	0           	                	;
 232             	1170        	0           	                	;
 233             	1163        	0           	                	;
 234             	1173        	0           	                	;
 235             	1163        	0           	                	;
 236             	1160        	0           	                	;
 237             	1157.8      	0           	                	;
 238             	1157.5      	0           	                	;
 239             	1157        	0           	                	;
 240             	1155.6      	0           	                	;
 241             	1154.3      	0           	                	;
 242             	1154.5      	0           	                	;
 243             	1155        	0           	                	;
 244             	1154.4      	0           	                	;
 245             	1154        	0           	                	;
 246             	1154        	0           	                	;
 247             	1154        	0           	                	;
 248             	1154        	21.98       	                	;
 249             	1156        	0           	                	;
 250             	1158.1      	22.31       	                	;
 251             	1162.2      	0           	                	;
 252             	1160.5      	0           	                	;
 253             	1161.3      	0           	                	;
 254             	1161.1      	0           	                	;
 255             	1160.6      	0           	                	;
 256             	1165        	0           	                	;
 257             	1163.5      	0           	                	;
 258             	1164.5      	4.35        	                	;
 259             	1163        	0           	                	;
 260             	1161        	0           	                	;
 261             	1158        	0           	                	;
 264             	1159.7      	0           	                	;
 265             	1161.2      	0           	                	;
 266             	1158.1      	26.65       	                	;
 267             	1161.8      	18.28       	                	;
 268             	1161        	0           	                	;
 269             	1160        	13.65       	                	;
 270             	1160        	19.54       	                	;
 272             	1155.7      	9.03        	                	;
 273             	1156        	13.65       	                	;
 274             	1156.7      	10.31       	                	;
 275             	1156        	16.73       	                	;
 276             	1158.2      	16.73       	                	;
 277             	1155        	10.57       	                	;
 278             	1159.5      	12.12       	                	;
 279             	1158.4      	10.57       	                	;
 280             	1158.5      	10.31       	                	;
 281             	1157.6      	10.31       	                	;
 282             	1157.5      	7.49        	                	;
 283             	1157        	10.31       	                	;
 284             	1156        	10.31       	                	;
 285             	1154.6      	7.99        	                	;
 286             	1154        	6.47        	                	;
 289             	1154.7      	19.14       	                	;
 290             	1157.5      	12.61       	                	;
 291             	1157.5      	9.11        	                	;
 292             	1155.1      	7.73        	                	;
 296             	1155        	9.28        	                	;
 297             	1154.4      	6.20        	                	;
 298             	1154        	8.27        	                	;
 299             	1157        	11.86       	                	;
 301             	1154.5      	12.87       	                	;
 302             	1157        	11.60       	                	;
 303             	1158.2      	7.49        	                	;
 304             	1158.2      	7.49        	                	;
 305             	1157.8      	11.60       	                	;
 306             	1158        	12.87       	                	;
 310             	1160.5      	0           	                	;
 311             	1164        	10.26       	                	;
 312             	1163.2      	0           	                	;
 313             	1163        	5.13        	                	;
 314             	1161.7      	11.02       	                	;
 315             	1163.5      	0           	                	;
 316             	1164        	0           	                	;
 317             	1164.5      	0           	                	;
 318             	1166        	8.46        	                	;
 319             	1165        	8.46        	                	;
 321             	1164        	4.35        	                	;
 322             	1162        	4.61        	                	;
 323             	1161        	5.64        	                	;
 324             	1162        	9.49        	                	;
 325             	1162.2      	9.49        	                	;
 326             	1161.3      	4.61        	                	;
 331             	1163.5      	4.88        	                	;
 332             	1162        	4.88        	                	;
 333             	1164        	5.64        	                	;
 334             	1165        	1.79        	                	;
 335             	1164.7      	6.16        	                	;
 336             	1162.7      	7.70        	                	;
 337             	1161.6      	9.75        	                	;
 338             	1161.3      	10.52       	                	;
 339             	1161        	5.64        	                	;
 340             	1160        	1.79        	                	;
 341             	1158        	7.28        	                	;
 342             	1157        	7.70        	                	;
 343             	1155        	1.03        	                	;
 344             	1156        	8.72        	                	;
 345             	1157.6      	8.72        	                	;
 346             	1165.5      	2.05        	                	;
 347             	1162        	2.05        	                	;
 349             	1160.8      	3.33        	                	;
 350             	1160        	2.31        	                	;
 351             	1159        	2.31        	                	;
 352             	1158        	2.82        	                	;
 353             	1157        	3.59        	                	;
 354             	1156.5      	2.56        	                	;
 355             	1155.2      	2.56        	                	;
 356             	1156.7      	4.11        	                	;
 357             	1158.5      	5.13        	                	;
 358             	1160.9      	9.49        	                	;
 359             	1162.4      	4.65        	                	;
 360             	1157.5      	13.84       	                	;
 361             	1160.2      	11.02       	                	;
 362             	1159.9      	9.23        	                	;
 363             	1162.9      	11.54       	                	;
 364             	1164.5      	6.16        	                	;
 365             	1163.1      	6.67        	                	;
 366             	1162.6      	5.90        	                	;
 367             	1161.1      	11.54       	                	;
 368             	1161.1      	7.18        	                	;
 369             	1163.5      	11.54       	                	;
 370             	1163.2      	15.39       	                	;
 371             	1164.7      	4.11        	                	;
 372             	1163.9      	5.90        	                	;
 373             	1161.3      	7.44        	                	;
 374             	1163.3      	8.46        	                	;
 375             	1160.6      	10.26       	                	;
 377             	1163        	9.75        	                	;
 381             	1168        	15.73       	                	;
 382             	1168.5      	11.73       	                	;
 383             	1166        	2.57        	                	;
 384             	1164.5      	0           	                	;
 385             	1168        	0           	                	;
 387             	1162        	0           	                	;
 388             	1160        	0           	                	;
 389             	1159        	0           	                	;
 390             	1162        	0           	                	;
 391             	1166        	8.07        	                	;
 392             	1164        	0           	                	;
 393             	1160        	34.65       	                	;
 394             	1158        	0           	                	;
 395             	1162        	45.94       	                	;
 396             	1157        	0           	                	;
 397             	1161        	0           	                	;
 398             	1163        	0           	                	;
 399             	1164        	0           	                	;
 400             	1157        	2.86        	                	;
 401             	1161        	4.04        	                	;
 402             	1163        	0           	                	;
 403             	1157        	0           	                	;
 404             	1162        	0           	                	;
 405             	1161        	0           	                	;
 406             	1164        	0           	                	;
 407             	1158        	0           	                	;
 408             	1162        	0           	                	;
 409             	1162        	0           	                	;
 410             	1163        	0           	                	;
 411             	1160        	0           	                	;
 412             	1158        	0           	                	;
 413             	1160        	0           	                	;
 414             	1165        	0           	                	;
 415             	1160        	0           	                	;
 416             	1160        	0           	                	;
 417             	1158        	0           	                	;
 418             	1162        	4.85        	                	;
 419             	1162        	0           	                	;
 420             	1159        	9.70        	                	;
 421             	1166        	6.46        	                	;
 422             	1169        	3.24        	                	;
 423             	1161        	5.65        	                	;
 424             	1162        	4.04        	                	;
 425             	1163        	7.27        	                	;
 426             	1167        	13.73       	                	;
 427             	1159        	4.85        	                	;
 428             	1167        	2.42        	                	;
 429             	1166        	0           	                	;
 430             	1161        	7.27        	                	;
 431             	1167        	6.46        	                	;
 433             	1162        	10.50       	                	;
 435             	1160        	3.24        	                	;
 436             	1160        	8.89        	                	;
 437             	1167        	11.31       	                	;
 438             	1162        	10.50       	                	;
 439             	1161        	6.46        	                	;
 440             	1166        	3.24        	                	;
 441             	1159        	0           	                	;
 442             	1162        	1.61        	                	;
 443             	1161        	4.04        	                	;
 444             	1169        	0           	                	;
 445             	1162        	3.24        	                	;
 446             	1159        	12.12       	                	;
 447             	1159        	8.07        	                	;
 448             	1160        	3.24        	                	;
 449             	1157        	14.22       	                	;
 450             	1162        	7.27        	                	;
 451             	1159        	0           	                	;
 452             	1163        	10.50       	                	;
 453             	1165        	0           	                	;
 454             	1158        	0           	                	;
 455             	1162        	3.24        	                	;
 456             	1159        	9.70        	                	;
 457             	1160        	2.91        	                	;
 458             	1168        	0           	                	;
 459             	1161        	8.07        	                	;
 460             	1165        	14.55       	                	;
 461             	1159        	8.07        	                	;
 462             	1158        	6.46        	                	;
 464             	1167        	12.12       	                	;
 465             	1160        	0           	                	;
 466             	1165        	12.12       	                	;
 467             	1162        	11.31       	                	;
 468             	1170        	4.04        	                	;
 469             	1159        	7.27        	                	;
 470             	1160        	2.42        	                	;
 471             	1161        	12.92       	                	;
 472             	1161        	8.07        	                	;
 473             	1156        	0           	                	;
 474             	1159        	8.07        	                	;
 475             	1158        	8.07        	                	;
 476             	1161        	5.65        	                	;
 477             	1161        	10.50       	                	;
 478             	1161        	4.85        	                	;
 479             	1168        	4.85        	                	;
 480             	1159        	5.65        	                	;
 481             	1168        	3.24        	                	;
 482             	1160        	6.46        	                	;
 483             	1163        	6.46        	                	;
 484             	1159        	6.46        	                	;
 485             	1164        	12.12       	                	;
 486             	1163        	13.73       	                	;
 487             	1159        	0           	                	;
 488             	1159        	9.70        	                	;
 489             	1162        	4.85        	                	;
 490             	1167        	0           	                	;
 491             	1158        	0           	                	;
 492             	1169        	4.85        	                	;
 493             	1161        	5.98        	                	;
 494             	1160        	0           	                	;
 495             	1169        	6.46        	                	;
 496             	1165        	11.31       	                	;
 497             	1168        	4.20        	                	;
 498             	1161        	6.46        	                	;
 499             	1161        	1.61        	                	;
 500             	1162        	7.27        	                	;
 501             	1162        	9.70        	                	;
 502             	1160        	4.04        	                	;
 503             	1163        	7.27        	                	;
 504             	1159        	3.24        	                	;
 505             	1164        	0           	                	;
 506             	1161        	0           	                	;
 507             	1164        	0           	                	;
 508             	1162        	9.70        	                	;
 509             	1162        	3.24        	                	;
 510             	1163        	13.73       	                	;
 511             	1158        	7.27        	                	;
 512             	1163        	4.04        	                	;
 513             	1162        	0           	                	;
 514             	1164        	2.42        	                	;
 515             	1164        	16.16       	                	;
 516             	1165        	16.16       	                	;
 517             	1160        	8.07        	                	;
 518             	1170        	8.07        	                	;
 519             	1158        	19.40       	                	;
 521             	1162        	1.61        	                	;
 530             	1161        	2.74        	                	;
 533             	1153        	0           	                	;
 535             	1154        	0           	                	;
 536             	1158        	0           	                	;
 537             	1154        	0           	                	;
 538             	1154        	1.25        	                	;
 539             	1154        	5.00        	                	;
 540             	1154        	3.76        	                	;
 541             	1154        	3.13        	                	;
 542             	1156        	7.51        	                	;
 543             	1156        	0           	                	;
 544             	1153        	3.13        	                	;
 545             	1155        	3.76        	                	;
 546             	1155        	10.26       	                	;
 547             	1154        	3.51        	                	;
 548             	1156        	5.88        	                	;
 549             	1156        	4.13        	                	;
 550             	1157        	6.25        	                	;
 551             	1158        	5.63        	                	;
 552             	1157        	6.25        	                	;
 554             	1155        	4.00        	                	;
 555             	1155        	5.63        	                	;
 556             	1154        	4.38        	                	;
 557             	1154        	1.87        	                	;
 558             	1156        	6.25        	                	;
 559             	1157        	0           	                	;
 560             	1157        	5.00        	                	;
 561             	1155        	3.76        	                	;
 562             	1156        	8.14        	                	;
 563             	1155        	5.00        	                	;
 564             	1156        	0           	                	;
 565             	1155        	4.38        	                	;
 566             	1155        	3.13        	                	;
 567             	1156        	0           	                	;
 568             	1155        	4.38        	                	;
 570             	1154        	5.00        	                	;
 571             	1157        	0           	                	;
 572             	1155        	0           	                	;
 573             	1155        	1.25        	                	;
 574             	1155        	2.25        	                	;
 575             	1157        	5.63        	                	;
 576             	1154        	0           	                	;
 577             	1156        	5.00        	                	;
 578             	1157        	8.25        	                	;
 579             	1158        	7.51        	                	;
 580             	1154        	6.25        	                	;
 581             	1156        	3.13        	                	;
 582             	1154        	5.63        	                	;
 583             	1154        	0           	                	;
 584             	1154        	5.25        	                	;
 585             	1157        	6.25        	                	;
 586             	1154        	1.25        	                	;
 587             	1155        	5.63        	                	;
 588             	1156        	5.63        	                	;
 589             	1155        	3.51        	                	;
 591             	1156        	1.25        	                	;
 592             	1154        	3.13        	                	;
 593             	1154        	5.63        	                	;
 594             	1156        	0           	                	;
 595             	1157        	1.25        	                	;
 596             	1153        	1.87        	                	;
 598             	1155        	4.38        	                	;
 599             	1157        	40.01       	                	;
 600             	1149        	0           	                	;
 601             	1150        	0           	                	;
 602             	1152        	0           	                	;
 603             	1149        	33.23       	                	;
 604             	1150        	25.78       	                	;
 605             	1152        	0           	                	;
 606             	1154        	0           	                	;
 607             	1152        	0           	                	;
 608             	1151        	0           	                	;
 609             	1150        	12.13       	                	;
 610             	1150        	11.22       	                	;
 611             	1152        	0           	                	;
 612             	1153        	0           	                	;
 613             	1152        	12.13       	                	;
 614             	1149        	15.78       	                	;
 615             	1153        	4.78        	                	;
 616             	1151        	0           	                	;
 617             	1148        	5.95        	                	;
 618             	1153        	6.73        	                	;
 619             	1150        	5.11        	                	;
 621             	1148        	5.71        	                	;
 622             	1149        	9.75        	                	;
 623             	1153        	11.76       	                	;
 624             	1152        	9.75        	                	;
 625             	1149        	11.22       	                	;
 626             	1148        	11.22       	                	;
 627             	1151        	0           	                	;
 628             	1152        	7.54        	                	;
 629             	1152        	0           	                	;
 630             	1153        	10.79       	                	;
 631             	1151        	16.33       	                	;
 632             	1149        	13.44       	                	;
 633             	1152        	0           	                	;
 634             	1149        	0           	                	;
 635             	1148        	5.79        	                	;
 636             	1149        	0           	                	;
 637             	1149        	14.86       	                	;
 638             	1151        	11.22       	                	;
 639             	1148        	13.95       	                	;
 640             	1149        	8.84        	                	;
 641             	1150        	13.03       	                	;
 642             	1151        	12.18       	                	;
 643             	1150        	8.54        	                	;
 644             	1148        	14.86       	                	;
 646             	1150        	17.61       	                	;
 647             	1148        	5.73        	                	;
 648             	1148        	5.73        	                	;
 649             	1149        	5.73        	                	;
 650             	1149        	17.61       	                	;
 651             	1150        	14.86       	                	;
 652             	1150        	9.39        	                	;
 653             	1150        	13.03       	                	;
 655             	1151        	13.03       	                	;
 657             	1152        	13.57       	                	;
 658             	1152        	13.57       	                	;
 659             	1152        	5.73        	                	;
 660             	1154        	0           	                	;
 661             	1151        	11.22       	                	;
 662             	1150        	8.46        	                	;
 663             	1154        	0           	                	;
 664             	1156        	26.81       	                	;
 665             	1172        	0           	                	;
 666             	1171        	0           	                	;
 667             	1172        	0           	                	;
 668             	1173        	0           	                	;
 669             	1172        	0           	                	;
 670             	1173        	0           	                	;
 671             	1173        	0           	                	;
 672             	1164        	4.41        	                	;
 673             	1164        	5.51        	                	;
 674             	1165        	4.41        	                	;
 675             	1164        	0           	                	;
 676             	1172        	5.15        	                	;
 677             	1172        	4.80        	                	;
 678             	1173        	7.03        	                	;
 679             	1173        	7.73        	                	;
 680             	1165        	2.94        	                	;
 681             	1173        	4.04        	                	;
 682             	1174        	5.85        	                	;
 683             	1172        	10.66       	                	;
 684             	1171        	4.41        	                	;
 685             	1172        	4.41        	                	;
 686             	1172        	6.62        	                	;
 688             	1173        	4.41        	                	;
 689             	1172        	5.89        	                	;
 690             	1169        	8.06        	                	;
 691             	1170        	5.89        	                	;
 692             	1164        	8.44        	                	;
 693             	1172        	3.30        	                	;
 694             	1168        	3.30        	                	;
 695             	1171        	8.59        	                	;
 696             	1168        	0           	                	;
 697             	1168        	4.41        	                	;
 698             	1168        	4.04        	                	;
 699             	1174        	5.89        	                	;
 700             	1171        	3.69        	                	;
 701             	1167        	4.41        	                	;
 702             	1173        	4.04        	                	;
 703             	1176        	5.85        	                	;
 704             	1172        	6.98        	                	;
 705             	1172        	9.20        	                	;
 706             	1173        	4.41        	                	;
 707             	1162        	5.15        	                	;
 708             	1167        	4.04        	                	;
 709             	1173        	5.15        	                	;
 710             	1163        	6.90        	                	;
 711             	1170        	3.69        	                	;
 712             	1169        	6.98        	                	;
 713             	1174        	5.89        	                	;
 714             	1172        	7.34        	                	;
 715             	1166        	4.80        	                	;
 716             	1161        	7.33        	                	;
 717             	1172        	5.15        	                	;
 718             	1171        	0           	                	;
 719             	1173        	5.89        	                	;
 720             	1173        	4.41        	                	;
 721             	1172        	8.77        	                	;
 722             	1169        	4.80        	                	;
 723             	1171        	2.94        	                	;
 724             	1171        	7.73        	                	;
 725             	1171        	5.50        	                	;
 726             	1172        	8.44        	                	;
 727             	1166        	4.41        	                	;
 728             	1173        	6.62        	                	;