[TITLE]


[JUNCTIONS]
;ID              	Elev        	Demand      	Pattern         
 J511            	105.0800    	0.000000    	                	;
 J411            	8.9500      	0.000000    	                	;
 J414            	34.3600     	0.000000    	                	;
 J415            	65.0000     	0.000000    	                	;
 J416            	42.6000     	0.000000    	                	;
 J417            	37.3800     	0.000000    	                	;
 J418            	37.3900     	0.000000    	                	;
 J419            	40.5000     	0.000000    	                	;
 J310            	51.8400     	0.000000    	                	;
 J311            	55.9500     	0.000000    	                	;
 J312            	68.4800     	0.000000    	                	;
 J313            	67.6600     	0.000000    	                	;
 J314            	14.9400     	0.000000    	                	;
 J315            	16.0300     	0.000000    	                	;
 J316            	12.9800     	0.000000    	                	;
 J318            	53.6700     	0.000000    	                	;
 J319            	39.2900     	0.000000    	                	;
 J210            	7.0100      	0.000000    	                	;
 J211            	11.2700     	0.000000    	                	;
 J212            	7.8700      	0.000000    	                	;
 J214            	8.6700      	0.000000    	                	;
 J217            	10.9800     	0.000000    	                	;
 J218            	7.6800      	0.000000    	                	;
 J219            	52.0000     	0.000000    	                	;
 J110            	15.9200     	0.000000    	                	;
 J420            	39.9900     	0.000000    	                	;
 J421            	37.0900     	0.000000    	                	;
 J422            	38.8100     	0.000000    	                	;
 J1153           	22.1400     	0.000000    	                	;
 J1154           	14.6100     	0.000000    	                	;
 J1155           	15.5400     	0.000000    	                	;
 J425            	64.4200     	0.000000    	                	;
 J426            	72.7100     	0.000000    	                	;
 J1157           	22.2100     	0.000000    	                	;
 J427            	67.6500     	0.000000    	                	;
 J1158           	28.2500     	0.000000    	                	;
 J428            	16.2000     	0.000000    	                	;
 J429            	12.5600     	0.000000    	                	;
 J320            	46.7300     	0.000000    	                	;
 J321            	44.5900     	0.000000    	                	;
 J322            	48.0200     	0.000000    	                	;
 J324            	42.3800     	0.000000    	                	;
 J1056           	7.6400      	0.000000    	                	;
 J327            	49.6800     	0.000000    	                	;
 J1058           	13.5800     	0.000000    	                	;
 J328            	45.6900     	0.000000    	                	;
 J329            	44.0500     	0.000000    	                	;
 J220            	80.0000     	0.000000    	                	;
 J221            	97.0700     	0.000000    	                	;
 J225            	13.3300     	0.000000    	                	;
 J226            	11.1000     	0.000000    	                	;
 J50             	71.8000     	0.000000    	                	;
 J51             	77.4200     	0.000000    	                	;
 J53             	85.0000     	0.000000    	                	;
 J54             	80.0000     	0.000000    	                	;
 J128            	85.2600     	0.000000    	                	;
 J55             	71.0000     	0.000000    	                	;
 J129            	62.8500     	0.000000    	                	;
 J56             	72.0000     	0.000000    	                	;
 J57             	59.0000     	0.000000    	                	;
 J58             	76.0000     	0.000000    	                	;
 J59             	57.0000     	0.000000    	                	;
 J1160           	24.9100     	0.000000    	                	;
 J1161           	25.2500     	0.000000    	                	;
 J431            	16.9000     	0.000000    	                	;
 J432            	19.8800     	0.000000    	                	;
 J433            	27.3500     	0.000000    	                	;
 J434            	16.4800     	0.000000    	                	;
 J435            	12.1500     	0.000000    	                	;
 J436            	17.6800     	0.000000    	                	;
 J438            	10.4300     	0.000000    	                	;
 J1169           	55.4200     	0.000000    	                	;
 J439            	17.7800     	0.000000    	                	;
 J330            	58.2500     	0.000000    	                	;
 J331            	59.2600     	0.000000    	                	;
 J332            	44.1800     	0.000000    	                	;
 J333            	25.7000     	0.000000    	                	;
 J334            	29.2800     	0.000000    	                	;
 J335            	25.0800     	0.000000    	                	;
 J336            	23.8100     	0.000000    	                	;
 J337            	22.1100     	0.000000    	                	;
 J231            	71.9000     	0.000000    	                	;
 J232            	69.8100     	0.000000    	                	;
 J233            	74.2300     	0.000000    	                	;
 J234            	64.0600     	0.000000    	                	;
 J236            	58.0000     	0.000000    	                	;
 J237            	73.1400     	0.000000    	                	;
 J130            	54.5200     	0.000000    	                	;
 J131            	88.0500     	0.000000    	                	;
 J132            	74.5500     	0.000000    	                	;
 J133            	69.5800     	0.000000    	                	;
 J60             	55.0000     	0.000000    	                	;
 J134            	80.7000     	0.000000    	                	;
 J135            	70.0000     	0.000000    	                	;
 J62             	60.0000     	0.000000    	                	;
 J64             	82.0000     	0.000000    	                	;
 J65             	82.0000     	0.000000    	                	;
 J66             	72.0000     	0.000000    	                	;
 J67             	81.0000     	0.000000    	                	;
 J68             	73.0000     	0.000000    	                	;
 J69             	71.0000     	0.000000    	                	;
 J1170           	54.5400     	0.000000    	                	;
 J441            	69.0000     	0.000000    	                	;
 J444            	29.4600     	0.000000    	                	;
 J341            	14.8900     	0.000000    	                	;
 J344            	54.7000     	0.000000    	                	;
 J345            	49.9700     	0.000000    	                	;
 J347            	54.4000     	0.000000    	                	;
 J348            	62.1800     	0.000000    	                	;
 J349            	36.4100     	0.000000    	                	;
 J241            	70.0000     	0.000000    	                	;
 J242            	65.0000     	0.000000    	                	;
 J243            	60.0000     	0.000000    	                	;
 J244            	70.0000     	0.000000    	                	;
 J245            	71.0000     	0.000000    	                	;
 J246            	55.0000     	0.000000    	                	;
 J247            	57.0000     	0.000000    	                	;
 J248            	54.0000     	0.000000    	                	;
 J249            	50.0000     	0.000000    	                	;
 J142            	5.5300      	0.000000    	                	;
 J143            	6.3000      	0.000000    	                	;
 J70             	70.0000     	0.000000    	                	;
 J144            	4.1700      	0.000000    	                	;
 J71             	77.0000     	0.000000    	                	;
 J72             	75.0000     	0.000000    	                	;
 J73             	80.0000     	0.000000    	                	;
 J74             	75.0000     	0.000000    	                	;
 J76             	70.0000     	0.000000    	                	;
 J77             	76.0000     	0.000000    	                	;
 J78             	60.5600     	0.000000    	                	;
 J350            	33.8200     	0.000000    	                	;
 J351            	25.5100     	0.000000    	                	;
 J352            	47.5500     	0.000000    	                	;
 J353            	22.6400     	0.000000    	                	;
 J354            	18.6800     	0.000000    	                	;
 J355            	28.8700     	0.000000    	                	;
 J358            	22.3000     	0.000000    	                	;
 J359            	17.5700     	0.000000    	                	;
 J250            	67.0000     	0.000000    	                	;
 J251            	75.1900     	0.000000    	                	;
 J252            	83.8200     	0.000000    	                	;
 J253            	74.6900     	0.000000    	                	;
 J254            	74.5900     	0.000000    	                	;
 J257            	105.5800    	0.000000    	                	;
 J154            	43.6900     	0.000000    	                	;
 J155            	44.4100     	0.000000    	                	;
 J82             	70.8700     	0.000000    	                	;
 J156            	56.1600     	0.000000    	                	;
 J83             	61.0700     	0.000000    	                	;
 J84             	43.8200     	0.000000    	                	;
 J85             	45.0000     	0.000000    	                	;
 J159            	37.4100     	0.000000    	                	;
 J86             	50.0000     	0.000000    	                	;
 J87             	42.6300     	0.000000    	                	;
 J89             	68.2900     	0.000000    	                	;
 J360            	20.7100     	0.000000    	                	;
 J361            	26.6700     	0.000000    	                	;
 J362            	43.6600     	0.000000    	                	;
 J363            	72.2300     	0.000000    	                	;
 J364            	65.0000     	0.000000    	                	;
 J365            	29.8300     	0.000000    	                	;
 J366            	14.4600     	0.000000    	                	;
 J1208           	42.7400     	0.000000    	                	;
 J367            	13.6000     	0.000000    	                	;
 J369            	20.2700     	0.000000    	                	;
 J160            	43.6900     	0.000000    	                	;
 J161            	22.8100     	0.000000    	                	;
 J162            	36.8800     	0.000000    	                	;
 J163            	16.2000     	0.000000    	                	;
 J164            	17.3400     	0.000000    	                	;
 J91             	64.0900     	0.000000    	                	;
 J165            	16.6900     	0.000000    	                	;
 J166            	23.9500     	0.000000    	                	;
 J167            	23.9100     	0.000000    	                	;
 J94             	30.7500     	0.000000    	                	;
 J95             	22.5600     	0.000000    	                	;
 J96             	30.0000     	0.000000    	                	;
 J97             	34.1900     	0.000000    	                	;
 J976            	6.3000      	0.000000    	                	;
 J571            	77.1100     	0.000000    	                	;
 J572            	76.4000     	0.000000    	                	;
 J573            	81.6200     	0.000000    	                	;
 J574            	67.3600     	0.000000    	                	;
 J575            	75.2700     	0.000000    	                	;
 J576            	80.8000     	0.000000    	                	;
 J370            	20.4600     	0.000000    	                	;
 J371            	68.8100     	0.000000    	                	;
 J372            	23.2000     	0.000000    	                	;
 J373            	27.2200     	0.000000    	                	;
 J374            	13.7000     	0.000000    	                	;
 J375            	22.7200     	0.000000    	                	;
 J376            	12.1800     	0.000000    	                	;
 J377            	13.1200     	0.000000    	                	;
 J1219           	14.4800     	0.000000    	                	;
 J379            	10.2500     	0.000000    	                	;
 J171            	8.8100      	0.000000    	                	;
 J172            	6.2500      	0.000000    	                	;
 J173            	13.0000     	0.000000    	                	;
 J174            	6.1100      	0.000000    	                	;
 J175            	6.8400      	0.000000    	                	;
 J177            	13.1400     	0.000000    	                	;
 J179            	15.0100     	0.000000    	                	;
 J580            	113.0800    	0.000000    	                	;
 J486            	86.1100     	0.000000    	                	;
 J487            	79.0000     	0.000000    	                	;
 J488            	89.1600     	0.000000    	                	;
 J489            	85.0200     	0.000000    	                	;
 J381            	36.0200     	0.000000    	                	;
 J1223           	3.4800      	0.000000    	                	;
 J382            	70.4200     	0.000000    	                	;
 J384            	42.5100     	0.000000    	                	;
 J385            	76.6000     	0.000000    	                	;
 J180            	8.7700      	0.000000    	                	;
 J181            	10.9400     	0.000000    	                	;
 J1024           	5.8300      	0.000000    	                	;
 J183            	13.2800     	0.000000    	                	;
 J1025           	8.6100      	0.000000    	                	;
 J186            	9.3800      	0.000000    	                	;
 J187            	9.8100      	0.000000    	                	;
 J188            	8.5100      	0.000000    	                	;
 J189            	7.5800      	0.000000    	                	;
 J490            	103.8400    	0.000000    	                	;
 J491            	76.9300     	0.000000    	                	;
 J492            	94.6700     	0.000000    	                	;
 J493            	77.6200     	0.000000    	                	;
 J494            	112.7600    	0.000000    	                	;
 J495            	91.1500     	0.000000    	                	;
 J496            	106.3400    	0.000000    	                	;
 J497            	112.6300    	0.000000    	                	;
 J498            	90.1200     	0.000000    	                	;
 J500            	75.5200     	0.000000    	                	;
 J499            	72.2400     	0.000000    	                	;
 J501            	80.9700     	0.000000    	                	;
 J502            	80.9900     	0.000000    	                	;
 J503            	99.6500     	0.000000    	                	;
 J504            	66.7100     	0.000000    	                	;
 J394            	70.5300     	0.000000    	                	;
 J509            	99.9400     	0.000000    	                	;
 J399            	75.0000     	0.000000    	                	;
 J401            	70.0000     	0.000000    	                	;
 J406            	71.7400     	0.000000    	                	;
 J295            	56.4200     	0.000000    	                	;
 J407            	68.0000     	0.000000    	                	;
 J296            	30.9100     	0.000000    	                	;
 J408            	7.9300      	0.000000    	                	;
 J297            	99.0500     	0.000000    	                	;
 J298            	77.4600     	0.000000    	                	;
 J191            	5.7600      	0.000000    	                	;
 J303            	50.4200     	0.000000    	                	;
 J192            	12.4000     	0.000000    	                	;
 J193            	12.9900     	0.000000    	                	;
 J305            	47.1100     	0.000000    	                	;
 J194            	13.4600     	0.000000    	                	;
 J195            	15.3900     	0.000000    	                	;
 J196            	13.3500     	0.000000    	                	;
 J308            	33.2400     	0.000000    	                	;
 J198            	18.5400     	0.000000    	                	;
 J200            	15.7500     	0.000000    	                	;
 J199            	16.2600     	0.000000    	                	;
 J201            	44.8600     	0.000000    	                	;
 J202            	10.4100     	0.000000    	                	;
 J203            	11.0300     	0.000000    	                	;
 J204            	21.5100     	0.000000    	                	;
 J205            	16.6600     	0.000000    	                	;
 J206            	14.1200     	0.000000    	                	;
 J207            	18.8600     	0.000000    	                	;
 J208            	11.2500     	0.000000    	                	;
 J101            	28.6500     	0.000000    	                	;
 J102            	46.9600     	0.000000    	                	;
 J109            	17.4700     	0.000000    	                	;
 J1              	16.8200     	0.000000    	                	;
 J2              	11.9700     	0.000000    	                	;
 J3              	29.0200     	0.000000    	                	;
 J4              	20.8800     	0.000000    	                	;
 J5              	22.7500     	0.000000    	                	;
 J6              	15.2500     	0.000000    	                	;
 J7              	24.9100     	0.000000    	                	;
 J8              	31.1700     	0.000000    	                	;
 J9              	31.8900     	0.000000    	                	;
 J10             	14.6200     	0.000000    	                	;
 J11             	18.4300     	0.000000    	                	;
 J12             	29.2700     	0.000000    	                	;
 J13             	32.0400     	0.000000    	                	;
 J14             	37.9100     	0.000000    	                	;
 J15             	102.8400    	0.000000    	                	;
 J16             	88.8900     	0.000000    	                	;
 J17             	82.7500     	0.000000    	                	;
 J18             	84.9600     	0.000000    	                	;
 J19             	90.9400     	0.000000    	                	;
 J20             	80.0000     	0.000000    	                	;
 J21             	80.0000     	0.000000    	                	;
 J22             	82.7400     	0.000000    	                	;
 J23             	75.9600     	0.000000    	                	;
 J25             	94.1300     	0.000000    	                	;
 J26             	76.3500     	0.000000    	                	;
 J27             	82.0800     	0.000000    	                	;
 J28             	45.0000     	0.000000    	                	;
 J29             	49.0000     	0.000000    	                	;
 J30             	72.0100     	0.000000    	                	;
 J31             	69.7800     	0.000000    	                	;
 J32             	45.0000     	0.000000    	                	;
 J33             	48.0000     	0.000000    	                	;
 J34             	50.0000     	0.000000    	                	;
 J35             	67.7800     	0.000000    	                	;
 J36             	51.0800     	0.000000    	                	;
 J37             	66.1900     	0.000000    	                	;
 J38             	47.0000     	0.000000    	                	;
 J24             	34.5300     	0.000000    	                	;
 J39             	45.8800     	0.000000    	                	;
 J40             	12.8000     	0.000000    	                	;
 J123            	38.4100     	0.000000    	                	;
 J140            	39.9400     	0.000000    	                	;
 J141            	41.4500     	0.000000    	                	;
 J157            	31.4900     	0.000000    	                	;
 J158            	25.8800     	0.000000    	                	;
 J168            	40.2100     	0.000000    	                	;
 J170            	46.8700     	0.000000    	                	;
 J176            	50.6400     	0.000000    	                	;
 J178            	58.8700     	0.000000    	                	;
 J184            	56.0900     	0.000000    	                	;
 J185            	43.7100     	0.000000    	                	;
 J190            	58.4900     	0.000000    	                	;
 J197            	41.8600     	0.000000    	                	;
 J213            	52.0700     	0.000000    	                	;
 J215            	75.7600     	0.000000    	                	;
 J216            	53.0600     	0.000000    	                	;
 J227            	52.8900     	0.000000    	                	;
 J238            	44.1600     	0.000000    	                	;
 J239            	43.4900     	0.000000    	                	;
 J255            	35.3100     	0.000000    	                	;
 J256            	40.0000     	0.000000    	                	;
 J258            	51.2400     	0.000000    	                	;
 J260            	32.5300     	0.000000    	                	;
 J265            	50.8700     	0.000000    	                	;
 J266            	39.8300     	0.000000    	                	;
 J267            	22.3100     	0.000000    	                	;
 J61             	72.0000     	0.000000    	                	;
 J92             	72.0000     	0.000000    	                	;
 J268            	69.6800     	0.000000    	                	;
 J278            	104.2900    	0.000000    	                	;
 J281            	83.7200     	0.000000    	                	;
 J283            	94.0600     	0.000000    	                	;
 J284            	77.3800     	0.000000    	                	;
 J136            	81.8000     	0.000000    	                	;
 J137            	9.1100      	0.000000    	                	;
 J145            	47.4600     	0.000000    	                	;
 J118            	75.0000     	0.000000    	                	;
 J52             	54.7000     	0.000000    	                	;
 J81             	50.0000     	0.000000    	                	;
 J88             	45.0000     	0.000000    	                	;
 J90             	84.0000     	0.000000    	                	;
 J93             	65.0000     	0.000000    	                	;
 J147            	68.0000     	0.000000    	                	;
 J148            	50.0000     	0.000000    	                	;
 J149            	40.0000     	0.000000    	                	;
 J150            	60.0000     	0.000000    	                	;
 J151            	60.0000     	0.000000    	                	;
 J152            	32.0000     	0.000000    	                	;
 J153            	60.0000     	0.000000    	                	;
 J169            	42.0000     	0.000000    	                	;
 J182            	40.0000     	0.000000    	                	;
 J222            	32.0000     	0.000000    	                	;
 J224            	37.0000     	0.000000    	                	;
 J230            	30.0000     	0.000000    	                	;
 J235            	53.0000     	0.000000    	                	;
 J240            	87.0000     	0.000000    	                	;
 J269            	56.0000     	0.000000    	                	;
 J273            	56.0000     	0.000000    	                	;
 J274            	56.0000     	0.000000    	                	;
 J276            	56.0000     	0.000000    	                	;
 J280            	56.0000     	0.000000    	                	;
 J285            	56.0000     	0.000000    	                	;
 J287            	40.0000     	0.000000    	                	;
 J288            	40.0000     	0.000000    	                	;
 J289            	40.0000     	0.000000    	                	;
 J290            	40.0000     	0.000000    	                	;
 J291            	65.0000     	0.000000    	                	;
 J292            	40.0000     	0.000000    	                	;
 J299            	40.0000     	0.000000    	                	;
 J300            	40.0000     	0.000000    	                	;
 J301            	44.0000     	0.000000    	                	;
 J302            	44.0000     	0.000000    	                	;
 J304            	44.0000     	0.000000    	                	;
 J306            	44.0000     	0.000000    	                	;
 J307            	44.0000     	0.000000    	                	;
 J309            	44.0000     	0.000000    	                	;
 J317            	44.0000     	0.000000    	                	;
 J323            	44.0000     	0.000000    	                	;

[RESERVOIRS]
;ID              	Head        	Pattern         
 R1              	59.0000     	                	;

[TANKS]
;ID              	Elevation   	InitLevel   	MinLevel    	MaxLevel    	Diameter    	MinVol      	VolCurve
 T3              	112.9000    	3.0000      	0.0000      	6.7500      	13.7300     	0.0000      	                	;
 T1              	71.5000     	3.0000      	0.0000      	6.5000      	31.3000     	0.0000      	                	;
 T7              	102.0000    	2.5000      	0.0000      	5.0000      	7.1400      	0.0000      	                	;
 T6              	101.5000    	5.2000      	0.0000      	5.5000      	8.3300      	0.0000      	                	;
 T5              	105.8000    	1.0000      	0.0000      	4.5000      	11.8900     	0.0000      	                	;
 T2              	65.0000     	0.5000      	0.0000      	5.9000      	20.7800     	0.0000      	                	;
 T4              	132.5000    	2.5000      	0.0000      	4.7000      	11.6400     	0.0000      	                	;

[PIPES]
;ID              	Node1           	Node2           	Length      	Diameter    	Roughness   	MinorLoss   	Status
 P1              	J175            	J174            	52.9000     	203.0000    	100.0000    	0.0000      	Open  	;
 P10             	J335            	J336            	79.2300     	76.0000     	100.0000    	0.0000      	Open  	;
 P100            	J159            	J160            	107.8800    	406.0000    	100.0000    	0.0000      	Open  	;
 P1000           	J341            	J204            	109.2700    	203.0000    	100.0000    	0.0000      	Open  	;
 P101            	J166            	J162            	243.3700    	254.0000    	100.0000    	0.0000      	Open  	;
 P1016           	J22             	J233            	164.7700    	305.0000    	100.0000    	0.0000      	Open  	;
 P102            	J109            	J408            	1280.3000   	508.0000    	100.0000    	0.0000      	Open  	;
 P1022           	J281            	J283            	200.7600    	102.0000    	100.0000    	0.0000      	Open  	;
 P1023           	J278            	J283            	136.3400    	102.0000    	100.0000    	0.0000      	Open  	;
 P1024           	J580            	J278            	375.6200    	102.0000    	100.0000    	0.0000      	Open  	;
 P1025           	J575            	J132            	39.1800     	76.0000     	100.0000    	0.0000      	Open  	;
 P1026           	J132            	J493            	45.6100     	76.0000     	100.0000    	0.0000      	Open  	;
 P1027           	J486            	J488            	82.3200     	51.0000     	100.0000    	0.0000      	Open  	;
 P1028           	J489            	J486            	9.5700      	51.0000     	100.0000    	0.0000      	Open  	;
 P1029           	J489            	J492            	122.6200    	76.0000     	100.0000    	0.0000      	Open  	;
 P103            	J2              	J1219           	35.9800     	254.0000    	100.0000    	0.0000      	Open  	;
 P1030           	J493            	J489            	95.2500     	76.0000     	100.0000    	0.0000      	Open  	;
 P1031           	J494            	J490            	188.2800    	152.0000    	100.0000    	0.0000      	Open  	;
 P1032           	J490            	J492            	143.2900    	152.0000    	100.0000    	0.0000      	Open  	;
 P1033           	J492            	J131            	128.7900    	152.0000    	100.0000    	0.0000      	Open  	;
 P1034           	J254            	J253            	52.8700     	203.0000    	100.0000    	0.0000      	Open  	;
 P1035           	J253            	J128            	122.4700    	152.0000    	100.0000    	0.0000      	Open  	;
 P1036           	J131            	J128            	83.3300     	203.0000    	100.0000    	0.0000      	Open  	;
 P1039           	J573            	J128            	121.3800    	203.0000    	100.0000    	0.0000      	Open  	;
 P104            	J166            	J167            	33.1100     	203.0000    	100.0000    	0.0000      	Open  	;
 P1040           	J136            	J573            	29.4500     	152.0000    	100.0000    	0.0000      	Open  	;
 P1041           	J136            	J129            	307.5400    	102.0000    	100.0000    	0.0000      	Open  	;
 P1042           	J89             	J573            	84.5400     	152.0000    	100.0000    	0.0000      	Open  	;
 P1044           	T5              	J64             	65.8000     	203.0000    	100.0000    	0.0000      	Open  	;
 P1045           	J64             	J53             	68.6300     	203.0000    	100.0000    	0.0000      	Open  	;
 P106            	J102            	J101            	270.3800    	102.0000    	100.0000    	0.0000      	Open  	;
 P107            	J171            	J172            	357.0000    	203.0000    	100.0000    	0.0000      	Open  	;
 P108            	J101            	J109            	183.5300    	203.0000    	100.0000    	0.0000      	Open  	;
 P109            	J175            	J172            	218.5200    	203.0000    	100.0000    	0.0000      	Open  	;
 P11             	J318            	J235            	83.4500     	101.6000    	100.0000    	0.0000      	Open  	;
 P110            	J179            	J177            	425.8300    	508.0000    	100.0000    	0.0000      	Open  	;
 P111            	J976            	J143            	126.3600    	152.0000    	100.0000    	0.0000      	Open  	;
 P112            	J142            	J976            	646.9800    	305.0000    	100.0000    	0.0000      	Open  	;