[TITLE]
Balerma Network  

[JUNCTIONS]
 179001                               60.0000
 179                                  60.0000
 177                                  58.9000
 174                                  60.0000
 173                                  59.3000
 171001                               60.0000
 171                                  60.0000
 172                                  60.0000
 170                                  60.0000
 165                                  56.7000
 166                                  57.3000
 168                                  57.1000
 169                                  56.5000
 163                                  55.2000
 164                                  57.8000
 162                                  55.2000
 161                                  55.0000
 106                                  54.0000
 124                                  52.2000
 125                                  51.1000
 125001                               49.4000
 126                                  49.3000
 127                                  56.5000
 128                                  55.0000
 129                                  52.3000
 130                                  50.2000
 132                                  55.0000
 131001                               57.0000
 131                                  52.4000
 133                                  46.6000
 134                                  28.8000
 135                                  60.0000
 136                                  43.3000
 137                                  25.0000
 138                                  23.6000
 139                                  42.5000
 141                                  50.0000
 143                                  38.3000
 144                                  36.8000
 145                                  27.0000
 142                                  24.0000
 140001                               55.5000
 151                                  56.5000
 152                                  55.0000
 107                                  50.0000
 108                                  46.2000
 109                                  48.6000
 110                                  47.6000
 111                                  47.1000
 113                                  47.9000
 114                                  46.0000
 112                                  45.6000
 115                                  50.0000
 116                                  50.0000
 117                                  47.5000
 118                                  45.0000
 119                                  46.0000
 105                                  55.8000
 102                                  54.5000
 103                                  51.5000
 104                                  52.4000
 100                                  53.1000
 101                                  51.2000
 96                                   52.8000
 97                                   51.4000
 98                                   46.0000
 99                                   45.0000
 93                                   50.0000
 94                                   51.7000
 95                                   51.4000
 92                                   40.0000
 160                                  32.9000
 159001                               34.0000
 159                                  31.4000
 156                                  34.2000
 157                                  40.0000
 158                                  46.0000
 155                                  34.0000
 154                                  41.6000
 153                                  34.0000
 55                                   30.0000
 59                                   21.0000
 60                                   11.0000
 61                                    5.0000
 62                                    3.5000
 147                                  33.0000
 150                                  45.0000
 148                                  29.0000
 149                                  19.0000
 63                                    9.0000
 64                                    4.5000
 65                                    3.3000
 66                                    1.2000
 67                                   12.3000
 68                                    9.3000
 69                                    8.1600
 70                                    8.8000
 71                                    8.1000
 72                                    7.4000
 56                                   12.9000
 57                                    4.8000
 58                                    3.0000
 53                                   14.5000
 54                                    4.1000
 52                                   31.0000
 46001                                33.0000
 50                                   20.0000
 51                                    4.4000
 47                                   13.1000
 48                                    7.1000
 49                                    1.6000
 42                                   15.0000
 45                                    5.9000
 46                                    3.5000
 41                                   31.0000
 35                                   30.0000
 36                                   13.0000
 39                                   10.0000
 40                                    6.3000
 37                                    6.0000
 91                                   42.5000
 90                                   45.0000
 89                                   47.0000
 31                                   20.0000
 32                                    7.1000
 34                                    4.4000
 33                                    4.6000
 28001                                32.2000
 28                                   22.5000
 29                                    9.2000
 30                                    5.6500
 27                                   31.2000
 26                                   12.3000
 23                                    7.5000
 22                                    5.2000
 87                                   40.3000
 86                                   41.4000
 83                                   40.2000
 77                                   45.0000
 81                                   44.4000
 78                                   44.8000
 79                                   45.8000
 80                                   46.6000
 82                                   46.9000
 84                                   40.0000
 85                                   50.0000
 121                                  50.0000
 122                                  49.3000
 123                                  47.3000
 120                                  49.5000
 75                                   47.0000
 76                                   47.4000
 73                                   32.5000
 74                                   40.0000
 227                                  52.8000
 215001                               75.0000
 215                                  60.0000
 219                                  50.0000
 220                                  52.3000
 221                                  51.7000
 222                                  52.0000
 223                                  50.8000
 223001                               54.5000
 224                                  50.1000
 225                                  49.5000
 226                                  50.7000
 214                                  74.0000
 216                                  62.7000
 217                                  62.0000
 218                                  57.2500
 201                                  95.0000
 203                                  94.2000
 204                                  92.9000
 205                                  91.4000
 211                                  90.8000
 212                                  65.0000
 206                                  84.2000
 207                                  80.6000
 208                                  76.8000
 209                                  70.0000
 210                                  70.0000
 213                                  73.8000
 200001                               95.0000
 199                                  94.0000
 196                                  92.7000
 197                                  90.0000
 198                                  89.6000
 233                                  87.1700
 232                                  84.2000
 231                                  80.5000
 230                                  72.5000
 234                                  65.0000
 194                                  95.0000
 195                                  95.0000
 192                                  95.0000
 193                                  85.0000
 234001                               65.0000
 235                                  71.5000
 236                                  76.0000
 237                                  83.0000
 238                                  81.3000
 240                                  83.0000
 239                                  86.3000
 190001                               95.0000
 187                                  95.0000
 188                                  94.2000
 189                                  90.5000
 186                                  95.0000
 185                                  95.0000
 235001                               75.5000
 241                                  83.3000
 242                                  87.8000
 243                                  83.6000
 244                                  78.1000
 245                                  83.5000
 183                                  87.7000
 184                                  85.7000
 182                                  95.0000
 249                                  94.1000
 248                                  95.0000
 247                                  90.8000
 246                                  85.0000
 181                                  93.0000
 266                                  71.4000
 180004                               84.2000
 190                                  95.0000
 191                                  91.8000
 180003                               90.0000
 180002                               95.0000
 180001                               95.6000
 180                                  95.0000
 287                                  73.3000
 286                                  72.0000
 285                                  71.0000
 284                                  70.0000
 200                                  77.8000
 274                                  65.5000
 275                                  66.0000
 276                                  71.0000
 265                                  70.0000
 268                                  65.0000
 269                                  66.0000
 271                                  72.4000
 270                                  73.7000
 318                                  35.0000
 317                                  40.0000
 316                                  46.0000
 315                                  45.0000
 313                                  45.0000
 314                                  40.0000
 312                                  45.6000
 310                                  45.7000
 311                                  48.4000
 309                                  50.0000
 297                                  52.0000
 298                                  55.0000
 299                                  60.0000
 296                                  51.7000
 294                                  48.5000
 293                                  47.6000
 291                                  49.0000
 295                                  51.4000
 288                                  55.0000
 289                                  71.0000
 290                                  68.0000
 282                                  66.8000
 277                                  60.0000
 278                                  67.2000
 279                                  71.4000
 280                                  73.6000
 281                                  75.0000
 272                                  73.4000
 273                                  70.0000
 264                                  70.5000
 257001                               71.0000
 258001                               74.4000
 259001                               71.6000
 260001                               75.3000
 261                                  76.4000
 262                                  76.0000
 263                                  75.8000
 255                                  82.6000
 258                                  83.5000
 259                                  83.3000
 260                                  81.5000
 256                                  84.0000
 257                                  87.0000
 254                                  83.9000
 250004                               85.0000
 421                                  98.1000
 420                                  99.8000
 419                                 101.1000
 418                                 103.0000
 416                                 103.0000
 417                                 104.0000
 415                                 103.0000
 414                                 102.0000
 413                                 100.0000
 250001                              100.0000
 21                                    4.8000
 319                                  46.9000
 320                                  47.5000
 20                                   11.0000
 19                                    3.2000
 18                                    8.0000
 302                                  50.0000
 303                                  50.0000
 305                                  51.0000
 306                                  54.8000
 307                                  54.8000
 321                                  50.0000
 11                                    4.0000
 322                                  47.4000
 323                                  44.0000
 301                                  75.2000
 300                                  75.0000
 324                                  53.4000
 368                                  58.0000
 367                                  59.8000
 369                                  59.2000
 325                                  75.0000
 365                                  79.7000
 362                                  80.0000
 360001                               80.5000
 360                                  80.6000
 359                                  80.7000
 361                                  79.5000
 366                                  79.4000
 364                                  80.0000
 363                                  80.5000
 326                                  75.7000
 327                                  76.5000
 328                                  77.0000
 329                                  77.7000
 330                                  75.3000
 334                                  80.2000
 336                                  80.0000
 331                                  75.7000
 332                                  75.0000
 333                                  80.0000
 337                                  84.3600
 338                                  81.1000
 340                                  83.5400
 341                                  83.6000
 250                                  83.0000
 251                                  82.5000
 253                                  78.8000
 252                                  78.8000
 342                                  82.8000
 343                                  82.2000
 344                                  80.2000
 339                                  81.6000
 250003                               86.0000
 250002                               88.6000
 412                                  90.0000
 411                                  89.7000
 410                                  89.7000
 409                                  87.0000
 408                                  86.7000
 407001                               85.0000
 407                                  84.5000
 345                                  84.4000
 346                                  84.1000
 347                                  83.1000
 348                                  82.9000
 349                                  82.7600
 350                                  84.2000
 350001                               83.7000
 351                                  83.6000
 356                                  82.3000
 352                                  82.1000
 335                                  80.4000
 406                                  84.4000
 405                                  84.3000
 404                                  83.7400
 353                                  81.8000
 354                                  81.5000
 355                                  81.1000
 357                                  82.1000
 358                                  82.0000
 370                                  59.5000
 371                                  59.2000
 372                                  57.2000
 373                                  68.0000
 374                                  69.5000
 378                                  56.6000
 379                                  53.0000
 380                                  50.5000
 381                                  45.0000
 382                                  45.0000
 376                                  56.2000
 377                                  52.7000
 383                                  52.7000
 384                                  56.0000
 396001                               80.4000
 397                                  80.5000
 398                                  80.5000
 400                                  81.7000
 401                                  81.7000
 402                                  80.8000
 403                                  80.9000
 10                                    3.3000
 9                                     1.7000
 8                                     8.5000
 2                                    16.5000
 1                                    13.2000
 3                                    23.9000
 385                                  54.7000
 17                                   10.0000
 16                                    8.1000
 15                                    6.7000
 13                                   12.4000
 12                                   15.0000
 14                                   19.2500
 6                                    18.4000
 5                                    12.5000
 601                                  56.0000
 387                                  54.8000
 388                                  54.8000
 389                                  55.5000
 390                                  52.5000
 391                                  53.0000
 392                                  52.0000
 393                                  50.0000
 394                                  56.4000
 395                                  55.6000
 396                                  40.4000
 4                                    14.2000
 7                                    10.0000
 228                                  49.8000
 229                                  49.6000
 256001                               75.0000
 399                                  81.7000
 24                                   10.0000
 24001                                10.0000
 25                                   14.5000
 45001                                32.0000
 71001                                 8.1000
 127001                               56.0000
 202001                               70.0000
 301001                               75.0000
 304                                  50.8000
 422                                 103.0000

[RESERVOIRS]
 38                                  117.0000 
 43                                  127.0000 
 44                                  122.0000 
 88                                  112.0000 

[TANKS]

[PIPES]
 1                               126                             125001                               65.0000     113.0000       0.0025       0.0000 
 2                               125001                          125                                 260.0000     113.0000       0.0025       0.0000 
 3                               125                             124                                 164.0000     113.0000       0.0025       0.0000 
 4                               124                             106                                 250.0000     285.0000       0.0025       0.0000 
 8                               106                             161                                 100.0000     162.8000       0.0025       0.0000 
 10                              161                             162                                  68.0000     162.8000       0.0025       0.0000 
 11                              162                             163                                 164.0000     162.8000       0.0025       0.0000 
 12                              163                             164                                 164.0000     113.0000       0.0025       0.0000 
 13                              163                             165                                  65.0000     144.6000       0.0025       0.0000 
 15                              165                             166                                  98.0000     113.0000       0.0025       0.0000 
 16                              166                             168                                 145.0000     113.0000       0.0025       0.0000 
 17                              165                             170                                  96.0000     144.6000       0.0025       0.0000 
 18                              170                             171001                              181.0000     126.6000       0.0025       0.0000 
 19                              171001                          171                                  92.0000     113.0000       0.0025       0.0000 
 20                              171                             172                                 100.0000     113.0000       0.0025       0.0000 
 21                              171001                          173                                 177.0000     126.6000       0.0025       0.0000 
 22                              173                             179                                 159.0000     113.0000       0.0025       0.0000 
 23                              173                             174                                 155.0000     113.0000       0.0025       0.0000 
 26                              179                             179001                              168.0000     113.0000       0.0025       0.0000 
 27                              179                             177                                 103.0000     113.0000       0.0025       0.0000 
 28                              168                             169                                 113.0000     113.0000       0.0025       0.0000 
 30                              124                             127                                 850.0000     285.0000       0.0025       0.0000 
 32                              128                             129                                 149.0000     113.0000       0.0025       0.0000 
 33                              129                             130                                 175.0000     113.0000       0.0025       0.0000 
 34                              127001                          131001                              500.0000     285.0000       0.0025       0.0000 
 35                              131                             132                                 134.0000     113.0000       0.0025       0.0000 
 40                              131001                          131                                 164.0000     113.0000       0.0025       0.0000 
 41                              131                             133                                 137.0000     113.0000       0.0025       0.0000 
 42                              133                             134                                 223.0000     113.0000       0.0025       0.0000 
 43                              131001                          135                                 394.0000     285.0000       0.0025       0.0000 
 44                              135                             136                                 191.0000     113.0000       0.0025       0.0000 
 46                              136                             137                                 440.0000     113.0000       0.0025       0.0000 
 47                              136                             138                                 459.0000     113.0000       0.0025       0.0000 
 50                              136                             139                                 184.0000     113.0000       0.0025       0.0000 
 56                              141                             143                                 300.0000     113.0000       0.0025       0.0000 
 57                              143                             144                                 116.0000     113.0000       0.0025       0.0000 
 58                              144                             145                                 198.0000     113.0000       0.0025       0.0000 
 59                              141                             142                                 510.0000     113.0000       0.0025       0.0000 
 61                              141                             140001                              127.0000     144.6000       0.0025       0.0000 
 62                              140001                          151                                 189.0000     144.6000       0.0025       0.0000 
 63                              151                             152                                  95.0000     113.0000       0.0025       0.0000 
 65                              124                             107                                 250.0000     113.0000       0.0025       0.0000 
 67                              107                             108                                 375.0000     113.0000       0.0025       0.0000 
 68                              108                             109                                 100.0000     113.0000       0.0025       0.0000 
 69                              109                             110                                 231.0000     113.0000       0.0025       0.0000 
 70                              110                             111                                  61.0000     113.0000       0.0025       0.0000 
 71                              110                             112                                 282.0000     113.0000       0.0025       0.0000 
 73                              112                             113                                  88.0000     113.0000       0.0025       0.0000 
 74                              113                             114                                 134.0000     113.0000       0.0025       0.0000 
 77                              115                             116                                  40.0000     113.0000       0.0025       0.0000 
 78                              116                             117                                 189.0000     113.0000       0.0025       0.0000 
 81                              119                             118                                 225.0000     113.0000       0.0025       0.0000 
 82                              117                             119                                 201.0000     113.0000       0.0025       0.0000 
 38                              106                             105                                  66.0000     126.6000       0.0025       0.0000 
 39                              105                             102                                  78.0000     126.6000       0.0025       0.0000 
 49                              102                             100                                 197.0000     126.6000       0.0025       0.0000 
 52                              100                             101                                 197.0000     113.0000       0.0025       0.0000 
 53                              102                             103                                 177.0000     113.0000       0.0025       0.0000 
 83                              103                             104                                  85.0000     113.0000       0.0025       0.0000 
 84                              100                             96                                  222.0000     113.0000       0.0025       0.0000 
 86                              96                              97                                  288.0000     113.0000       0.0025       0.0000 
 87                              97                              98                                  130.0000     113.0000       0.0025       0.0000 