
[TITLE]
 Oberlin Water System October 1993 Sampling Run
 Chlorine - Bulk Decay Only
 ===============================================
 Pipe replaced on High Street (8" pipe)
 Start at 7 AM; Fluoride off at 8 AM and back on at 8 PM
 Modified Demands to add commercial, schools, hydrants - Revised 1-11-94
 Modified 12-13-94 for global demand multiplier of .75 and external
 demand at Node 287 of 10 gpm.

[JUNCTIONS]
;...........................................
;           Elevation      Demand   Patterns
;   ID        (ft)          (gpm)
;.................................................
; ending col. 7: 2-Commercial  4-School  5-hydrant
;.................................................
     1       560.000        0.00
     2       568.000        0.00
     3       568.000        0.00
     4       568.500        0.00
     5       568.000        0.00
     6       568.000        0.00
     7       560.000        0.00
     8       568.000        0.00
    36       415.000        1.62        1
    38       422.000        0.00
    39       429.000        0.287       1
    40       437.000        0.606       1
    402      437.0          0.573       2
    41       417.000        0.912       1
    42       393.000        1.66        1
    425      393.0          1.00        5
    43       395.000        0.719       1
    44       394.000        1.05        1
    45       411.000        0.848       1
    455      411.0          1.00        5
    54       405.000        0.00
    55       404.000        0.00
    56       417.000        2.45        1
    565      417.0          1.00        5
    57       386.000        0.631       1
    58       380.000        0.530       1
    59       387.000        0.210       1
    60       379.000        0.383       1
    61       389.000        0.895       1
    62       392.000        0.00        1
    63       373.000        0.383       1
    64       372.000        0.495       1
    75       372.000        0.407       1
    76       368.000        0.00        1
    77       372.000        0.439       1
    775      372.0          1.00        5
    78       393.000        0.00        1
    79       394.000        0.323       1
    80       367.000        0.926       1
    805      367.0          1.00        5
    81       361.000        0.168       1
    82       373.000        0.00        1
    83       386.000        0.399       1
    84       373.000        0.782       1
    85       381.000        0.00        1
    86       381.000        0.423       1
    87       387.000        0.477       1
    88       369.000        0.032       1
    89       378.000        0.152       1
    90       369.000        0.048       1
   111       560.000        0.086       1
   1112      560.0          0.148       2
   112       560.000        0.203       1
   113       560.000        0.699       1
   114       560.000        0.892       1
   115       560.000        0.276       1
   116       560.000        0.331       1
   117       560.000        0.418       1
   118       560.000        0.426       1
   119       560.000        0.245       1
   120       558.000        0.371       1
   1202      558.0          0.221       2
   1205      558.0          1.00        5
   123       560.000        0.347       1
   124       548.000        0.742       1
   125       560.000        2.02        1
   126       542.000        0.189       1
   127       528.000        0.789       1
   128       542.000        0.00        1
   129       498.000        0.134       1
   130       542.000        0.134       1
   131       543.000        0.182       1
   134       432.000        0.139       1
   135       432.000        0.498       1
   136       449.000        0.419       1
   1365      449.0          1.00        5
   137       436.000        0.103       1
   138       443.000        0.663       1
   139       451.000        0.049       1
   140       463.000        1.39        1
   1404      463.0          0.008       4
   141       459.000        0.324       1
   142       486.000        0.706       1
   143       505.000        0.801       1
   144       489.000        0.00        1
   145       518.000        0.408       1
   1455      518.0          1.00        5
   146       504.000        0.245       1
   147       520.000        0.545       1
   148       488.000        0.327       1
   149       465.000        0.556       1
   150       454.000        0.237       1
   151       465.000        0.915       1
   152       447.000        0.134       1
   153       439.000        0.00        1
   154       472.000        1.38        1
   155       467.000        0.513       1
   1552      467.0          1.03        2
   1555      467.0          1.00        5
   156       491.000        0.874       1
   1565      491.0          1.00        5
   157       496.000        0.907       1
   158       498.000        0.552       1
   1585      498.0          1.00        5
   159       520.000       0.915        1
   160       540.000       0.434        1
   1602      540.0         0.552        2
   1605      540.0         1.00         5
   161       452.000        0.329       1
   1612      452.0          0.416       2
   1615      452.0          1.00        5
   162       475.000        0.592       1
   163       458.000        0.994       1
   1632      458.0          0.008       2
   1634      458.0          0.126       4
   164       449.000        0.556       1
   165       490.000        0.00        1
   166       475.000        0.292       1
   167       500.000        0.616       1
   168       505.000        0.734       1
   169       505.000        0.679       1
   1695      505.0          1.00        5
   170       498.000       0.908        1
   171       498.000       0.560        1
   172       498.000       0.126        1
   173       498.000       0.00         1
   174       500.000       0.655        1
   175       498.000       0.956        4
   176       498.000        0.00        1
   177       458.000        1.39        1
   1775      458.0          1.00        5
   178       434.000        1.27        1
   179       484.000        0.718       1
   180       439.000        0.134       1
   181       454.000        1.24        1
   182       432.000        0.158       1
   1822      432.0          0.521       2
   183       429.000        0.719       1
   184       457.000        0.711       1
   1845      457.0          1.00        5
   185       415.000        0.00        1
   189       502.000        0.537       1
   190       510.000       0.908        1
   1902      510.0         0.024        2
   191       525.000        2.07        1
   192       498.000        0.00        1
   193       536.000        0.237       1
   1934      536.0          0.032       4
   1935      536.0          1.00        5
   194       498.000        0.00        1
   195       498.000        0.00        1
   196       498.000        0.00        1
   197       528.000        0.663       1
   198       515.000       0.718        1
   199       510.000       0.758        1
   200       500.000        0.18        1
   201       498.000        0.074       1
   205       525.000       0.242        1
   2054      525.0         2.26         4
   2055      525.0         1.00         5
   206       530.000       1.49         1
   2062      530.0         0.268        2
   207       560.000       0.402        1
   208       540.000       1.09         1
   2082      540.0         0.032        2
   213       522.000       0.218        1
   215       518.000        0.00        1
   216       522.000        0.00        1
   223       510.000        0.078       1
   2232      510.0          0.008       2
   2235      510.0          1.00        5
   224       500.000       0.531        1
   225       503.000       0.843        1
   226       536.000        0.874       1
   2265      536.0          1.00        5
   227       517.000        0.117       1
   2275      517.0          1.00        5
   228       540.000       0.683        1
   229       540.000       0.773        1
   2292      540.0         0.055        2
   230       540.000        0.07        1
   2302      540.0          0.492       2
   231       540.000        0.164       1
   232       540.000        0.284       1
   2322      540.0          0.308       2
   233       545.000        0.118       1
   2332      545.0          0.268       2
   234       545.000        0.189       1
   2345      545.0          1.0         5
   235       540.000        0.355       1
   2352      540.0          0.079       2
   236       540.000       0.829        1
   237       540.000        0.123       1
   238       518.000       0.392        1
   239       522.000        0.284       1
   240       522.000        0.788       1
   241       515.000        1.09        1
   2415      515.0          1.00        5
   242       480.000       0.257        1
   243       503.000        0.242       1
   244       510.000        0.507       1
   245       525.000        0.884       1
   246       525.000        0.789       1
   247       523.000        0.189       1
   248       535.000        0.702       1
   249       540.000        0.513       1
   250       550.000        0.087       1
   2502      550.0          0.174       2
   251       550.000       0.174        1
   2512      550.0         0.142        2
   252       550.000       0.596        1
   253       542.000        1.55        1
   2532      542.0          0.205       2
   254       543.000        0.473       1
   255       543.000        0.087       1
   256       550.000        1.03        1
   257       542.000        0.205       1
   258       550.000        0.568       1
   259       540.000        0.071       1
   260       432.000       0.876        1
   261       437.000        0.776       1
   262       446.000       0.750        1
   263       438.000        0.734       1
   2635      438.0          1.00        5
   264       429.000        0.654       1
   2642      429.0          0.245       2
   265       403.000       1.12         1
   266       427.000        0.719       1
   267       405.000        0.213       1
   268       401.000        0.316       1
   269       401.000        0.98        1
   270       400.000        0.131       1
   271       412.000        1.83        1
   2712      412.0          0.057       2
   272       400.000        0.433       1
   273       421.000        1.10        1
   2732      421.0          0.039       2
   2735      421.0          1.00        5
   274       412.000       1.38         1
   2745      412.0          1.00        5
   275       400.000       0.892        1
   2755      400.0          1.00        5
   276       437.000        0.41        1
   277       406.000        0.639       1
   278       409.000       0.000        1
   279       400.000        0.158       1
   280       405.000       0.000        1
   281       400.000        0.931       1
   282       400.000        0.087       1
   283       400.000        1.43        1
   2835      400.0          1.00        5
   284       400.000       0.182        1
   285       386.000        0.915       1
   286       400.000       0.174        1
   287       368.000        10            1  ;adjusted from .158
   2875      368.0          1.00        5
   288       378.000        0.197       1
   289       367.000        .237           1 ; adjusted from .237 gpm
   290       399.000       0.513        1
   291       389.000       0.821        1
   292       417.000       0.376        1
   293       501.000        0.00        1

[TANKS]
;............................................................
;                     Initial   Minimum   Maximum
;        Elevation     Level     Level     Level    Diameter
; Node     (ft)        (ft)      (ft)      (ft)       (ft)
;............................................................
;  410        0.00     600.00    568.50    631.00     18.52
   410      600.00

[PIPES]
;..........................................................
;        Start    End     Length   Diameter    Roughness
;  ID    Node     Node     (ft)      (in)     Coefficient
;..........................................................
    1       1       2    107.000     6.000       60.000
    2       3       4     50.000     6.000      109.000
    3       4       5     50.000     8.000      109.000
    4       5       6    120.000     8.000      130.000
    5       7       8    100.000     8.000      130.000
   32      38      39    133.000     6.000      118.000
   33      38      40     80.000     6.000      118.000
   402     40      402     1.00      6.0        118.0
   34      41      42    493.000     6.000       64.000
   425     42      425     5.0       6.0         64.0
   35      40      41     77.000     6.000       64.000
   36      43      44     77.000     6.000       64.000
   37      45      43    242.000     6.000       64.000
   455     45      455     5.0       6.0         64.0
   46      54      55    157.000     2.000       56.000
   47      56      54    354.000     2.000       52.000
   48      36      56    263.000     6.000       64.000
   565     56      565     5.0       6.0         64.0
   49      57      56    530.000     8.000      119.000
   50      39      36    189.000     6.000      118.000
   51      42      58    243.000     6.000       64.000
   52      59      42    222.000     6.000       64.000
   53      58      60    251.000     6.000      113.000
   54      58      61    202.000     6.000       64.000
   55      59      44    186.000     6.000       64.000
   56      44      62     39.000     2.000       52.000
   57      60      63    304.000     6.000      130.000
   58      64      63    129.000     6.000      130.000
   59      60      57    153.000     6.000      113.000
   69      64      75    135.000     6.000      130.000
   70      76      64    446.000     2.000       52.000
   71      61      77    271.000     6.000       64.000
   72      78      62     53.000     2.000       52.000
   73      79      78    221.000     2.000       57.000
   74      75      80    447.000     6.000      130.000
   75      80      76    140.000     6.000      117.000
   76      80      81    410.000     6.000      117.000
   805     80      805     5.0       6.0        117.0
   77      76      82    110.000     6.000      117.000
   775     77      775     5.0       6.0        117.0
   78      77      82     31.000     6.000      117.000
   79      83      82    593.000     2.000       60.000
   80      77      84    204.000     6.000      116.000
   81      77      85    242.000     6.000      116.000
   82      85      86     44.000     6.000      116.000
   83      86      87    297.000     6.000      116.000
   84      88      83    209.000     2.000       60.000
   85      88      89    235.000     4.000      108.000
   86      90      88     62.000     2.000       60.000
   87      81      90    185.000     2.000       60.000
  110     112     111    329.000     6.000       60.000
  111     111     113    130.000     6.000       60.000
  1112    1112    111      1.0       6.0         60.0
  112     114     111     86.000     8.000      117.000
  113       7     112     89.000     6.000       60.000
  114     115     112    224.000     6.000      118.000
  115     116       7    115.000     6.000       60.000
  116     116       1     75.000     6.000       60.000
  117     117     116    281.000     2.000       52.000
  118       1     118    104.000     6.000       60.000
  119     118     119    366.000     6.000       60.000
  120     120     118    313.000     6.000       60.000
  1202    120     1202     1.0       6.0         60.0
  1205    120     1205     5.0       6.0         60.0
  123     119     123    176.000     6.000       60.000
  124     124     123    195.000     2.000      120.000
  125     123     125    192.000     8.000      120.000
  126     124     126    148.000     6.000      118.000
  127     127     124    519.000     2.000      120.000
  128     126     128    138.000     2.000      120.000
  129     126     129     62.000     6.000       60.000
  130     128     130    136.000     2.000      120.000
  131     131     130     66.000     2.000      120.000
  134     134     135    228.000     2.000       54.000
  135     136     137    247.000     8.000      130.000
  1365    136     1365     5.0       6.0        119.0
  136     137     138    114.000     8.000      130.000
  137     137     135    162.000     2.000       51.000
  138     139     136    150.000     6.000      119.000
  139     140     141    130.000     6.000      117.000
  140     142     140    550.000     8.000      118.000
  1404    140     1404     1.0       6.0        117.0
  141     143     142    241.000     6.000      118.000
  142     144     142    141.000     8.000      118.000
  143     143     145    225.000     8.000      118.000
  144     146     143    170.000     2.000       57.000
  145     147     145    173.000     6.000       69.000
  1455    145     1455     5.0       6.0         69.
  146     146     148    154.000     2.000       62.000
  147     149     150    457.000     2.000       51.000
  148     151     150    199.000     6.000       70.000
  149     150     152    116.000     2.000       51.000
  150     150     153    162.000     6.000       70.000
  151     154     149    632.000     2.000       51.000
  152     155     149    210.000     6.000      119.000
  1552    155     1552   1.0         6.0        119.0
  1555    155     1555   5.0         6.0        119.0
  153     149     139    137.000     6.000      119.000
  154     156     154    467.000     2.000       51.000
  155     157     156    205.000     2.000       51.000
  156     158     156    372.000     8.000      118.000
  1565    156     1565     5.0       6.0        119.0
  1585    158     1585     5.0       6.0        119.0
  157     156     144    151.000     8.000      118.000
  158     159     157    332.000     1.252       44.000
  159     160     159    413.000     2.000       52.000
  1602    160     1602     1.0       6.0        119.0
  1605    160     1605     5.0       6.0        119.0
  160     151     161    221.000     8.000       66.000
  1612    161     1612     1.0       8.0         66.0
  1615    161     1615     5.0       6.0         60.0
  161     162     151    254.000     8.000       66.000
  162     161     163    291.000     4.000       56.000
  1632    163     1632     1.0       6.0         60.0
  1634    163     1634     1.0       6.0         60.0
  163     161     164     46.000     6.000       60.000
  164     165     162    171.000     1.252       41.000
  165     155     162    212.000     8.000       66.000
  166     166     155    118.000     2.000       47.000
  167     167     155    545.000     8.000       66.000
  168     168     167    234.000     8.000       66.000
  169     169     167    282.000     6.000      116.000
  1695    169     1695     5.00      6.0        116.0
  170     158     168    220.000     8.000       66.000
  171     170     158    280.000     2.000       61.000
  172     171     158    241.000     8.000       66.000
  173     172     170    129.000     2.000       58.000
  174     170     169    451.000     2.000       52.000
  175     173     170    172.000     2.000       61.000
  176     169     174    504.000     2.000       52.000
  177     175     169    168.000     1.000       46.000
  178     176     169    141.000     6.000      116.000
  179     174     163    638.000     2.000       52.000
  1775    177     1775     5.0       6.0         64.0
  180     163     177    282.000     6.000       64.000
  181     163     178    253.000     4.000       59.000
  182     177     179    433.000     6.000      117.000
  1822    182     1822     1.0       6.0        117.0
  183     180     177    219.000     6.000      117.000
  184     177     181    561.000     6.000       64.000
  185     182     180    236.000     6.000      117.000
  186     181     183    309.000     6.000       64.000
  187     181     184    389.000     6.000      118.000
  1845    184     1845     5.0       6.0        118.0
  188     185     183    294.000     4.000      108.000
  189     183      45    302.000     6.000       64.000
  190     184      40    327.000     6.000       64.000
  195     189     171    233.000     8.000       66.000
  1902    190     1902     1.0       2.0         60.0
  196     190     191    335.000     2.000       60.000
  197     191     192    393.000     8.000       72.000
  1934    193     1934     1.0       6.0         69.0
  1935    193     1935     5.0       6.0         69.0
  198     193     191    767.000     8.000       71.000
  199     192     194    726.000     8.000      115.000
  200     194     195   1019.000     8.000      115.000
  201     195     196    256.000     8.000      115.000
  202     197     147    239.000     6.000       69.000
  203     198     199    293.000     2.000       60.000
  204     197     198    295.000     2.000       59.000
  205     200     146    136.000     2.000       57.000
  206     201     146    169.000     2.000       62.000
  211     205     113    433.000     6.000       60.000
  2054    205     2054     1.0       6.0         60.0
  2055    205     2055     5.0       6.0         60.0
  212     206     114    899.000     8.000      117.000
  2062    206     2062     1.0       6.0         60.0
  213     117     207     54.000     6.000       60.000
  214     120     208    345.000     6.000       60.000
  2082    208     2082     1.0       6.0         60.0
  215     207     120    151.000     6.000       60.000
  224     213     205    411.000     8.000      117.000
  225     213     215    346.000     8.000      117.000  ;2000
  226     205     216    410.000     4.000       74.000
  237     215     223    226.000     8.000      117.000
  2232    223     2232     1.0       6.0         62.0
  2235    223     2235     5.0       6.0         64.0
  238     223     224    233.000     6.000       64.000
  239     224     225    523.000     6.000       64.000
  240     225     226    508.000     6.000      117.000
  2265    226     2265     5.0       6.0         64.0
  241     225     227    219.000     6.000       64.000
  2275    227     2275     5.0       6.0         64.0
  242     228     226    239.000     6.000       60.000
  243     226     229    170.000     6.000       60.000
  2292    229     2292     1.0       6.0         60.0
  244     230     228    149.000     6.000       60.000
  2302    230     2302     1.0       6.0         60.0
  245     231     230    118.000     2.000       53.000
  246     232     230    176.000     6.000       60.000
  247     206     232    181.000     6.000       60.000
  2322    232     2322     1.0       6.0         60.0
  248     233     232    116.000     6.000       60.000
  2332    233     2332     1.0       6.0         60.0
  249     234     232     84.000     6.000       60.000
  2345    234     2345     5.0       6.0         60.0
  250     235     206    203.000     6.000       60.000
  2352    235     2352     1.0       6.0         60.0
  251     236     235    254.000     6.000       60.000
  252     208     236    180.000     6.000       60.000
  253     236     234    326.000     6.000       60.000
  254     237     208    138.000     6.000       60.000
  255     229     238    309.000     6.000       60.000
  256     239     238    128.000     6.000       60.000
  257     238     240    158.000     6.000       60.000
  258     227     240    182.000     6.000       64.000
  259     240     241    317.000     6.000       60.000
  2415    241     2415     5.0       6.0         64.0
  260     242     243    203.000     2.000       59.000
  261     243     241    255.000     2.000       59.000
  262     241     244    250.000     2.000       48.000
  263     241     245    313.000     6.000       60.000
  264     246     245    152.000     6.000       66.000
  265     245     189    266.000     8.000       66.000
  266     246     247    185.000     6.000       60.000
  267     247     248    163.000     6.000       60.000
  268     248     249    398.000     6.000       60.000
  269     248     160    174.000     2.000       48.000
  270     250     249    162.000     6.000      116.000
  271     251     233    170.000     6.000       60.000
  272     233     250    192.000     6.000       60.000
  2502    250     2502     1.0       6.0         60.0
  273     125     252    704.000     8.000      120.000
  274     253     129    130.000     6.000       60.000
  275     131     254    126.000     2.000      120.000
  276     255     253    140.000     2.000      120.000
  277     256     253    572.000     6.000       60.000
  2532    253     2532     1.0       6.0         60.0
  278     254     255    138.000     2.000      120.000
  279     257     255    142.000     6.000      117.000
  280     252     256    166.000     8.000      120.000
  281     256     258    124.000     6.000       60.000
  282     258     251    352.000     6.000       60.000
  2512    251     2512     1.0       6.0         60.0
  283     259     258    444.000     2.000       47.000
  284     250     193    515.000     8.000       71.000
  285     193     197    360.000     6.000       69.000
  286     182     260    264.000     6.000      117.000
  287     178     260    195.000     4.000       59.000
  288     164     261    189.000     6.000       60.000
  289     152     262    117.000     2.000       51.000
  290     153     263    122.000     6.000       70.000
  2635    263     2635     5.0       6.0         70.0
  291     138     263     86.000     8.000      130.000
  292     264     135    337.000     2.000       54.000
  2642    264     2642     1.0       2.0         54.0
  293     260     265    450.000     2.000       51.000
  294     260     266    294.000     6.000       63.000
  295     265     267    153.000     2.000       51.000
  296     267     268    233.000     2.000       51.000
  297     268     269    137.000     2.000       51.000
  298     269     270    160.000     2.000       51.000
  299     271     269    434.000     4.000       56.000
  300     270     272    119.000     1.000       44.000
  301     266     271    244.000     6.000       60.000
  2712    271     2712     1.0       6.0         60.0
  302     266     273    200.000     6.000       60.000
  2732    273     2732     1.0       6.0         60.0
  2735    273     2735     5.0       6.0         60.0
  303     261     266    223.000     6.000       60.000
  304     262     273    450.000     4.000       56.000
  305     273     274    308.000     4.000       56.000
  2745    274     2745   308.0       4.0         56.0
  306     273     275    923.000     6.000       60.000
  2755    275     2755     5.0       6.0         60.0
  307     263     276    234.000     8.000      130.000
  308     276     274    450.000     8.000      130.000
  309     274     277    234.000     4.000       56.000
  310     278     274    156.000     6.000      117.000
  311     277     279    208.000     4.000       56.000
  312     277     280    226.000     2.000       47.000
  313     279     281    227.000     4.000       56.000
  314     282     279    272.000     1.000       38.000
  315     283     281    221.000     4.000       56.000
  316     281     284    261.000     2.000      130.000
  317     283     285    543.000     4.000       56.000
  2835    283     2835     5.0       4.0         56.0
  318     283     286    168.000     2.000      130.000
  319     285     287    262.000     4.000       56.000
  2875    287     2875     5.0       4.0         56.0
  320     285     288    154.000     2.000       51.000
  321     289     287    325.000     6.000      119.000
  322     288     290    418.000     2.000       51.000
  323     275     291    264.000     6.000       60.000
  324     291     289    502.000     6.000       60.000
  325     292     278    201.000     6.000      117.000
  326     293     196    281.000     8.000      115.000
 2360       4     410      1.000     8.000      200.000

[PUMPS]
;..............................................................................
;      Start  End      H1       Q1       H2       Q2       H3       Q3     Q4
;  ID  Node   Node    (ft)    (gpm)     (ft)    (gpm)     (ft)    (gpm)  (gpm)
;..............................................................................
  2359   6      8    45.00             39.00   330.00    23.00   550.00  550.00

[QUALITY]
;       Node    Initial
;         ID      Cl2
;------------------------
           1     0.67
           2     0.67
           3     0.67
           4     0.67
           5     0.67
           6     0.67
           7     0.67
           8     0.67
          36     0.01
          38     0.01
          39     0.01
          40     0.01
         402     0.01
          41     0.01
          42     0.03
         425     0.03
          43     0.01
          44     0.01
          45     0.01
         455     0.01
          54     0.01
          55     0.01
          56     0.01
         565     0.01
          57     0.01
          58     0.02
          59     0.02
          60     0.02
          61     0.02
          62     0.02
          63     0.02
          64     0.02
          75     0.02
          76     0.02
          77     0.01
         775     0.01
          78     0.02
          79     0.02
          80     0.03
         805     0.03
          81     0.03
          82     0.02
          83     0.02
          84     0.02
          85     0.02
          86     0.02
          87     0.02
          88     0.02
          89     0.02
          90     0.02
         111     0.67
        1112     0.67
         112     0.67
         113     0.58
         114     0.58