[TITLE]
EPANET Example Network 2  
Example of modeling a 55-hour fluoride tracer study.  
Measured fluoride data is contained in the file Net2-FL.dat  

[JUNCTIONS]
 1                                    50.0000
 2                                   100.0000
 3                                    60.0000
 4                                    60.0000
 5                                   100.0000
 6                                   125.0000
 7                                   160.0000
 8                                   110.0000
 9                                   180.0000
 10                                  130.0000
 11                                  185.0000
 12                                  210.0000
 13                                  210.0000
 14                                  200.0000
 15                                  190.0000
 16                                  150.0000
 17                                  180.0000
 18                                  100.0000
 19                                  150.0000
 20                                  170.0000
 21                                  150.0000
 22                                  200.0000
 23                                  230.0000
 24                                  190.0000
 25                                  230.0000
 27                                  130.0000
 28                                  110.0000
 29                                  110.0000
 30                                  130.0000
 31                                  190.0000
 32                                  110.0000
 33                                  180.0000
 34                                  190.0000
 35                                  110.0000
 36                                  110.0000

[RESERVOIRS]

[TANKS]
 26                                  720.0000      56.7000      10.0000     210.0000      60.0000      10.0000 

[PIPES]
 1                               1                               2                                  4800.0000      24.0000     200.0000       1.0000 CLOSED
 2                               2                               5                                  1600.0000      24.0000     200.0000       1.0000 CLOSED
 3                               2                               3                                  2600.0000      16.0000     200.0000       1.0000 CLOSED
 4                               3                               4                                  2400.0000      16.0000     200.0000       1.0000 CLOSED
 5                               4                               5                                  2000.0000      24.0000     200.0000       1.0000 CLOSED
 6                               5                               6                                  2400.0000      24.0000     200.0000       1.0000 CLOSED
 7                               6                               7                                  5400.0000      24.0000     200.0000       1.0000 CLOSED
 8                               7                               8                                  2400.0000      24.0000     280.0000       1.0000 CLOSED
 9                               7                               9                                   800.0000      24.0000     200.0000       1.0000 CLOSED
 10                              8                               10                                 2000.0000      16.0000     280.0000       1.0000 CLOSED
 11                              9                               11                                 1400.0000      24.0000     200.0000       1.0000 CLOSED
 12                              11                              12                                 3800.0000      24.0000     200.0000       1.0000 CLOSED
 13                              12                              13                                 1200.0000      24.0000     200.0000       1.0000 CLOSED
 14                              13                              14                                  800.0000      24.0000     200.0000       1.0000 CLOSED
 15                              14                              15                                  600.0000      24.0000     200.0000       1.0000 CLOSED
 16                              13                              16                                 3000.0000      16.0000     200.0000       1.0000 CLOSED
 17                              15                              17                                 3000.0000      16.0000     200.0000       1.0000 CLOSED
 18                              16                              17                                 1200.0000      16.0000     200.0000       1.0000 CLOSED
 19                              17                              18                                 1400.0000      24.0000     200.0000       1.0000 CLOSED
 20                              18                              32                                  700.0000      24.0000     200.0000       1.0000 CLOSED
 21                              16                              19                                 2800.0000      16.0000     200.0000       1.0000 CLOSED
 22                              14                              20                                 2200.0000      24.0000     200.0000       1.0000 CLOSED
 23                              20                              21                                 2600.0000      16.0000     200.0000       1.0000 CLOSED
 24                              21                              22                                 2600.0000      16.0000     200.0000       1.0000 CLOSED
 25                              20                              22                                 2600.0000      16.0000     200.0000       1.0000 CLOSED
 26                              24                              23                                 1200.0000      24.0000     200.0000       1.0000 CLOSED
 27                              15                              24                                  500.0000      24.0000     200.0000       1.0000 CLOSED
 28                              23                              25                                  600.0000      24.0000     200.0000       1.0000 CLOSED
 29                              25                              26                                  400.0000      24.0000     200.0000       1.0000 CLOSED
 30                              25                              31                                 1200.0000      24.0000     200.0000       1.0000 CLOSED
 31                              31                              27                                  800.0000      16.0000     200.0000       1.0000 CLOSED
 32                              27                              29                                  800.0000      16.0000     200.0000       1.0000 CLOSED
 34                              29                              28                                 1400.0000      16.0000     200.0000       1.0000 CLOSED
 35                              22                              33                                 2000.0000      16.0000     200.0000       1.0000 CLOSED
 36                              33                              34                                  800.0000      16.0000     200.0000       1.0000 CLOSED
 37                              32                              19                                 1000.0000      16.0000     200.0000       1.0000 CLOSED
 38                              29                              35                                 1000.0000      16.0000     200.0000       1.0000 CLOSED
 39                              35                              30                                 2000.0000      16.0000     200.0000       1.0000 CLOSED
 40                              28                              35                                 1400.0000      16.0000     200.0000       1.0000 CLOSED
 41                              28                              36                                  600.0000      16.0000     111.0000       1.0000 CLOSED

[PUMPS]

[VALVES]

[DEMANDS]
 1                                  -694.400024    2
 2                                   160.000000 
 3                                    14.000000    1
 4                                     8.000000    1
 5                                     8.000000    1
 6                                     5.000000    1
 7                                     4.000000    1
 8                                     9.000000    1
 9                                    14.000000    1
 10                                    5.000000    1
 11                                   34.779999    1
 12                                   16.000000    1
 13                                    2.000000    1
 14                                    2.000000    1
 15                                    2.000000    1
 16                                   20.000000    1
 17                                   20.000000    1
 18                                   20.000000    1
 19                                    5.000000    1
 20                                   19.000000    1
 21                                   16.000000    1
 22                                   10.000000    1
 23                                    8.000000    1
 24                                   11.000000    1
 25                                    6.000000    1
 27                                    8.000000    1
 28                                    0.000000    1
 29                                    7.000000    1
 30                                    3.000000    1
 31                                   17.000000    1
 32                                   17.000000    1
 33                                    1.500000    1
 34                                    1.500000    1
 35                                    0.000000    1
 36                                    1.000000    1

[EMITTERS]
 2                                     0.500000

[STATUS]
 1                               closed
 2                               closed
 3                               closed
 4                               closed
 5                               closed
 6                               closed
 7                               closed
 8                               closed
 9                               closed
 10                              closed
 11                              closed
 12                              closed
 13                              closed
 14                              closed
 15                              closed
 16                              closed
 17                              closed
 18                              closed
 19                              closed
 20                              closed
 21                              closed
 22                              closed
 23                              closed
 24                              closed
 25                              closed
 26                              closed
 27                              closed
 28                              closed
 29                              closed
 30                              closed
 31                              closed
 32                              closed
 34                              closed
 35                              closed
 36                              closed
 37                              closed
 38                              closed
 39                              closed
 40                              closed
 41                              closed

[PATTERNS]
 1                                     1.0000       1.0100       1.0200       1.0300       1.0400       1.0500
 1                                     1.0600       1.0700       1.0800       1.2000       1.1000       1.1100
 1                                     1.1200       1.1300       1.1400       1.1500       1.1600       1.1700
 1                                     1.1800       1.1900       1.2000       1.2100       1.2200       1.2300
 1                                     1.2400       1.2500       1.2600       1.2700       1.2800       1.2900
 1                                     1.3000       1.3100       1.3200       1.3300       1.3400       1.3500
 1                                     1.3600       1.3700       1.3800       1.3900       1.4000       1.4100
 1                                     1.4200       1.4300       1.4400       1.4500       1.4600       1.4700
 1                                     1.4800       1.4900       1.5000       1.5100       1.5200       1.5300
 1                                     1.5400       1.5500       1.5600       1.5700       1.5800       1.5900
 1                                     1.6000       1.6100       1.6200       1.6300       1.6400       1.6500
 1                                     1.6600       1.6700       1.6800       1.6900       1.7000       1.7100
 1                                     1.7200       1.7300       1.7400       1.7500       1.7600       1.7700
 1                                     1.7800       1.7900       1.8000       1.8100       1.8200       1.8300
 1                                     1.8400       1.8500       1.8600       1.8700       1.8800       1.8900
 1                                     1.9000       1.9100       1.9200       1.9300       1.9400       1.9500
 1                                     1.9600       1.9700       1.9800       1.9900     800.0000
 2                                     0.9600       0.9600       0.9600       0.9600       0.9600       0.9600
 2                                     0.6200       0.0000       0.0000       0.0000       0.0000       0.0000
 2                                     0.8000       1.0000       1.0000       1.0000       1.0000       0.1500
 2                                     0.0000       0.0000       0.0000       0.0000       0.0000       0.0000
 2                                     0.5500       0.9200       0.9200       0.9200       0.9200       0.9000
 2                                     0.9000       0.4500       0.0000       0.0000       0.0000       0.0000
 2                                     0.0000       0.7000       1.0000       1.0000       1.0000       1.0000
 2                                     0.2000       0.0000       0.0000       0.0000       0.0000       0.0000
 2                                     0.0000       0.7400       0.9200       0.9200       0.9200       0.9200
 2                                     0.9200       0.9600       0.9600       0.9600       0.9600       0.9600
 2                                     0.9600       0.6200       0.0000       0.0000       0.0000       0.0000
 2                                     0.0000       0.8000       1.0000       1.0000       1.0000       1.0000
 2                                     0.1500       0.0000       0.0000       0.0000       0.0000       0.0000
 2                                     0.0000       0.5500       0.9200       0.9200       0.9200       0.9200
 2                                     0.9000       0.9000       0.4500       0.0000       0.0000       0.0000
 2                                     0.0000       0.0000       0.7000       1.0000       1.0000       1.0000
 2                                     1.0000       0.2000       0.0000       0.0000       0.0000
 3                                     0.9800       1.0200       1.0500       0.9900       0.6400       0.4600
 3                                     0.3500       0.3500       0.3500       0.3500       0.3500       0.3500
 3                                     0.1700       0.1700       0.1300       0.1300       0.1300       0.1500
 3                                     0.1500       0.1500       0.1500       0.1500       0.1500       0.1500
 3                                     0.1500       0.1200       0.1000       0.0800       0.1100       0.0900
 3                                     0.0900       0.0800       0.0800       0.0800       0.0800       0.0800
 3                                     0.0800       0.0900       0.0700       0.0700       0.0900       0.0900
 3                                     0.0900       0.0900       0.0900       0.0900       0.0900       0.0900
 3                                     0.0900       0.0800       0.3500       0.7200       0.8200       0.9200
 3                                     1.0000       0.9800       1.0200       1.0500       0.9900       0.6400
 3                                     0.4600       0.3500       0.3500       0.3500       0.3500       0.3500
 3                                     0.3500       0.1700       0.1700       0.1300       0.1300       0.1300
 3                                     0.1500       0.1500       0.1500       0.1500       0.1500       0.1500
 3                                     0.1500       0.1500       0.1200       0.1000       0.0800       0.1100
 3                                     0.0900       0.0900       0.0800       0.0800       0.0800       0.0800
 3                                     0.0800       0.0800       0.0900       0.0700       0.0700       0.0900
 3                                     0.0900       0.0900       0.0900       0.0900       0.0900
 NewPat1                               1.0000       1.0000       1.0000       1.0000       1.0000       1.0000
 NewPat1                               1.0000       1.0000       1.0000       1.0000       1.0000       1.0000
 NewPat1                               1.0000       1.0000       1.0000       1.0000       1.0000       1.0000
 NewPat1                               1.0000       1.0000       1.0000       1.0000       1.0000       1.0000
 NewPat1                               1.0000       1.0000       1.0000       1.0000       1.0000       1.0000
 NewPat1                               1.0000       1.0000       1.0000       1.0000       1.0000       1.0000
 NewPat1                               1.0000       1.0000       1.0000       1.0000       1.0000       1.0000
 NewPat1                               1.0000       1.0000       1.0000       1.0000       1.0000       1.0000
 NewPat1                               1.0000       1.0000       1.0000       1.0000       1.0000       1.0000
 NewPat1                               1.0000       1.0000       1.0000       1.0000       1.0000       1.0000
 NewPat1                               1.0000       1.0000       1.0000       1.0000       1.0000       1.0000
 NewPat1                               1.0000       1.0000       1.0000       1.0000       1.0000       1.0000
 NewPat1                               1.0000       1.0000       1.0000       1.0000       1.0000       1.0000
 NewPat1                               1.0000       1.0000       1.0000       1.0000       1.0000       1.0000
 NewPat1                               1.0000       1.0000       1.0000       1.0000       1.0000       1.0000
 NewPat1                               1.0000       1.0000       1.0000       1.0000       1.0000       1.0000
 NewPat1                               1.0000       1.0000       1.0000       1.0000       1.0000
 NewPat2                               0.8000       1.1000       1.4000       1.1000       0.8000       0.7000
 NewPat2                               0.8000       1.1000       1.4000       1.1000       0.8000       0.7000
 NewPat2                               0.8000       1.1000       1.4000       1.1000       0.8000       0.7000
 NewPat2                               0.8000       1.1000       1.4000       1.1000       0.8000       0.7000
 NewPat2                               0.8000       1.1000       1.4000       1.1000       0.8000       0.7000
 NewPat2                               0.8000       1.1000       1.4000       1.1000       0.8000       0.7000
 NewPat2                               0.8000       1.1000       1.4000       1.1000       0.8000       0.7000
 NewPat2                               0.8000       1.1000       1.4000       1.1000       0.8000       0.7000
 NewPat2                               0.8000       1.1000       1.4000       1.1000       0.8000       0.7000
 NewPat2                               0.8000       1.1000       1.4000       1.1000       0.8000       0.7000
 NewPat2                               0.8000       1.1000       1.4000       1.1000       0.8000       0.7000
 NewPat2                               0.8000       1.1000       1.4000       1.1000       0.8000       0.7000
 NewPat2                               0.8000       1.1000       1.4000       1.1000       0.8000       0.7000
 NewPat2                               0.8000       1.1000       1.4000       1.1000       0.8000       0.7000
 NewPat2                               0.8000       1.1000       1.4000       1.1000       0.8000       0.7000
 NewPat2                               0.8000       1.1000       1.4000       1.1000       0.8000       0.7000
 NewPat2                               0.8000       1.1000       1.4000       1.1000       0.8000

[CURVES]

[CONTROLS]

[QUALITY]
 1                                    28.317000
 2                                    16.990201
 3                                    28.317000
 4                                    28.317000
 5                                    28.317000
 6                                    28.317000
 7                                    28.317000
 8                                    28.317000
 9                                    28.317000
 10                                   28.317000
 11                                   28.317000
 12                                   28.317000
 13                                   28.317000
 14                                   28.317000
 15                                   28.317000
 16                                   28.317000
 17                                   28.317000
 18                                   28.317000
 19                                   28.317000
 20                                   28.317000
 21                                   28.317000
 22                                   28.317000
 23                                   28.317000
 24                                   28.317000
 25                                   28.317000
 27                                   28.317000
 28                                   28.317000
 29                                   28.317000
 30                                   28.317000
 31                                   28.317000
 32                                   28.317000
 33                                   28.317000
 34                                   28.317000
 35                                   28.317000
 36                                   28.317000
 26                                   28.317000

[SOURCES]
 1                               CONCEN         1.000000 3
 2                               FLOWPACED       0.500000 
 3                               CONCEN        -1.#IND00 
 4                               CONCEN        -1.#IND00 
 5                               CONCEN        -1.#IND00 
 6                               CONCEN        -1.#IND00 1
 7                               CONCEN        -1.#IND00 
 8                               CONCEN        -1.#IND00 
 9                               CONCEN        -1.#IND00 
 10                              CONCEN        -1.#IND00 
 11                              CONCEN        -1.#IND00 
 12                              CONCEN        -1.#IND00 
 13                              CONCEN        -1.#IND00 
 14                              CONCEN        -1.#IND00 
 15                              CONCEN        -1.#IND00 
 16                              CONCEN        -1.#IND00 
 17                              CONCEN        -1.#IND00 
 18                              CONCEN        -1.#IND00 
 19                              CONCEN        -1.#IND00 
 20                              CONCEN        -1.#IND00 
 21                              CONCEN        -1.#IND00 
 22                              CONCEN        -1.#IND00 
 23                              CONCEN        -1.#IND00 
 24                              CONCEN        -1.#IND00 
 25                              CONCEN        -1.#IND00 
 27                              CONCEN        -1.#IND00 
 28                              CONCEN        -1.#IND00 
 29                              CONCEN        -1.#IND00 
 30                              CONCEN        -1.#IND00 
 31                              CONCEN        -1.#IND00 
 32                              CONCEN        -1.#IND00 
 33                              CONCEN        -1.#IND00 
 34                              CONCEN        -1.#IND00 
 35                              CONCEN        -1.#IND00 
 36                              CONCEN        -1.#IND00 
 26                              CONCEN        -1.#IND00 

[MIXING]
 26                              LIFO           1.0000

[REACTIONS]
 ORDER  BULK            1.00
 ORDER  WALL            1
 ORDER  TANK            1.00
 GLOBAL BULK            0.000000
 GLOBAL WALL            0.000000
 BULK   1                               -0.055000
 BULK   2                               -0.055000
 BULK   3                               -0.055000
 BULK   4                               -0.055000
 BULK   5                               -0.055000
 BULK   6                               -0.055000
 BULK   7                               -0.055000
 BULK   8                               -0.055000
 BULK   9                               -0.055000
 BULK   10                              -0.055000
 BULK   11                              -0.055000
 BULK   12                              -0.055000
 BULK   13                              -0.055000
 BULK   14                              -0.055000
 BULK   15                              -0.055000
 BULK   16                              -0.055000
 BULK   17                              -0.055000
 BULK   18                              -0.055000
 BULK   19                              -0.055000
 BULK   20                              -0.055000
 BULK   21                              -0.055000
 BULK   22                              -0.055000
 BULK   23                              -0.055000
 BULK   24                              -0.055000
 BULK   25                              -0.055000
 BULK   26                              -0.055000
 BULK   27                              -0.055000
 BULK   28                              -0.055000
 BULK   29                              -0.055000
 BULK   30                              -0.055000
 BULK   31                              -0.055000
 BULK   32                              -0.055000
 BULK   34                              -0.055000
 BULK   35                              -0.055000
 BULK   36                              -0.055000
 BULK   37                              -0.055000
 BULK   38                              -0.055000
 BULK   39                              -0.055000
 BULK   40                              -0.055000
 BULK   41                              -0.055000
 TANK   26                              1.000000

[ENERGY]
 GLOBAL EFFIC        75.0000
 DEMAND CHARGE       0.0000

[TIMES]
 DURATION            24:01:40
 HYDRAULIC TIMESTEP  0:58:20
 QUALITY TIMESTEP    0:04:10
 REPORT TIMESTEP     0:58:20
 REPORT START        0:03:20
 PATTERN TIMESTEP    1:56:40
 PATTERN START       0:01:40
 RULE TIMESTEP       0:01:40
 START CLOCKTIME     8:00:00
 STATISTIC           NONE

[OPTIONS]
 UNITS               GPM
 PRESSURE            PSI
 HEADLOSS            H-W
 PATTERN             1
 UNBALANCED          CONTINUE 10
 QUALITY             TRACE 26                             
 DEMAND MULTIPLIER   1.1000
 EMITTER EXPONENT    0.5500
 VISCOSITY           1.000000
 DIFFUSIVITY         1.000000
 SPECIFIC GRAVITY    1.000000
 TRIALS              45
 ACCURACY            0.01500000
 TOLERANCE           0.56633999
 CHECKFREQ           2
 MAXCHECK            10
 DAMPLIMIT           0.00000000

[REPORT]
 PAGESIZE            0
 STATUS              NO
 SUMMARY             NO
 ENERGY              NO
 NODES               NONE
 LINKS               NONE
 Elevation           NO
 Demand              PRECISION 2
 Head                PRECISION 2
 Pressure            PRECISION 2
 Quality             NO
 Length              NO
 Diameter            NO
 Flow                PRECISION 2
 Velocity            PRECISION 2
 Headloss            PRECISION 2
 Quality             NO
 State               NO
 Setting             NO
 Reaction            NO
[TAGS]

[RULES]

[COORDINATES]
;Node            	X-Coord         	Y-Coord
 1               	21.00           	4.00            
 2               	19.00           	20.00           
 3               	11.00           	21.00           
 4               	14.00           	28.00           
 5               	19.00           	25.00           
 6               	28.00           	23.00           
 7               	36.00           	39.00           
 8               	38.00           	30.00           
 9               	36.00           	42.00           
 10              	37.00           	23.00           
 11              	37.00           	49.00           
 12              	39.00           	60.00           
 13              	38.00           	64.00           
 14              	38.00           	66.00           
 15              	37.00           	69.00           
 16              	27.00           	65.00           
 17              	27.00           	69.00           
 18              	23.00           	68.00           
 19              	21.00           	59.00           
 20              	45.00           	68.00           
 21              	51.00           	62.00           
 22              	54.00           	69.00           
 23              	35.00           	74.00           
 24              	37.00           	71.00           