[TITLE]


[JUNCTIONS]
;ID              	Elev        	Demand      	Pattern         
 J-1             	827.8779    	3.455       	11              	;
 J-10            	702.9915    	0.222       	11              	;
 J-100           	715.8031    	3.131       	11              	;
 J-101           	707.8074    	1.68        	11              	;
 J-102           	713.6502    	1.053       	11              	;
 J-103           	722.426     	3.207       	11              	;
 J-104           	755.264     	2.284       	11              	;
 J-105           	811.7897    	1.034       	11              	;
 J-106           	668.2       	25.107      	11              	;
 J-107           	819.5187    	4.022       	11              	;
 J-108           	717.9304    	1.22        	11              	;
 J-109           	719.8839    	2.069       	11              	;
 J-11            	833.084     	4.644       	11              	;
 J-110           	757.6441    	4.541       	11              	;
 J-111           	815.9564    	3.753       	11              	;
 J-112           	713.8528    	0.892       	11              	;
 J-113           	826.1265    	1.965       	11              	;
 J-114           	790.607     	1.079       	11              	;
 J-115           	712.8643    	1.348       	11              	;
 J-116           	719.9912    	5.249       	11              	;
 J-117           	824.8449    	8.884       	11              	;
 J-118           	836.1444    	7.611       	11              	;
 J-119           	822.9587    	2.046       	11              	;
 J-12            	864.2354    	3.173       	11              	;
 J-120           	820.0375    	1.499       	11              	;
 J-121           	735.2062    	2.399       	11              	;
 J-122           	737.2734    	0.282       	11              	;
 J-123           	826.4803    	2.626       	11              	;
 J-124           	830.7352    	0.354       	11              	;
 J-125           	713.6415    	2.441       	11              	;
 J-126           	860.0606    	1.603       	11              	;
 J-127           	823.2175    	2.324       	11              	;
 J-128           	809.1961    	0           	                	;
 J-129           	704.1454    	3.511       	11              	;
 J-13            	864.9341    	0.132       	11              	;
 J-130           	826.5341    	0.481       	11              	;
 J-131           	830.8855    	1.6         	11              	;
 J-132           	765.9084    	2.091       	11              	;
 J-133           	824.1836    	2.183       	11              	;
 J-134           	714.842     	0.155       	11              	;
 J-135           	728.0247    	4.458       	11              	;
 J-136           	799.6594    	2.999       	11              	;
 J-137           	722.3592    	2.586       	11              	;
 J-138           	805.1968    	1.244       	11              	;
 J-139           	809.0209    	1.665       	11              	;
 J-14            	843.1075    	1.627       	11              	;
 J-140           	785.9373    	3.741       	11              	;
 J-141           	733.0634    	2.053       	11              	;
 J-142           	770.0557    	1.005       	11              	;
 J-143           	866.152     	4.851       	11              	;
 J-144           	720.5813    	1.594       	11              	;
 J-145           	720.8011    	1.185       	11              	;
 J-146           	707.8231    	3.835       	11              	;
 J-147           	701.9896    	0.861       	11              	;
 J-148           	708.3099    	2.249       	11              	;
 J-149           	706.965     	1.433       	11              	;
 J-15            	779.5731    	1.839       	11              	;
 J-150           	726.3725    	0.629       	11              	;
 J-151           	816.2421    	0.464       	11              	;
 J-152           	834.694     	0.986       	11              	;
 J-153           	730.9581    	1.477       	11              	;
 J-154           	814.5136    	0.941       	11              	;
 J-155           	824.9387    	0.871       	11              	;
 J-156           	738.991     	3.127       	11              	;
 J-157           	744.9891    	2.815       	11              	;
 J-158           	726.6152    	0.576       	11              	;
 J-159           	815.7682    	2.108       	11              	;
 J-16            	832.4956    	2.497       	11              	;
 J-160           	810.0319    	0.46        	11              	;
 J-161           	754.1252    	1.402       	11              	;
 J-162           	714.4454    	0.766       	11              	;
 J-163           	714.6489    	0.815       	11              	;
 J-164           	753.2233    	3.207       	11              	;
 J-165           	720.9912    	1.652       	11              	;
 J-166           	707.9638    	1.962       	11              	;
 J-167           	814.5156    	10.637      	11              	;
 J-168           	706.5472    	3.903       	11              	;
 J-169           	713.8094    	4.007       	11              	;
 J-17            	728.877     	1.958       	11              	;
 J-170           	818.0319    	2.05        	11              	;
 J-171           	812.5058    	0.063       	11              	;
 J-172           	817.4445    	1.982       	11              	;
 J-173           	805.6604    	0.391       	11              	;
 J-174           	828.6038    	5.243       	11              	;
 J-175           	710.8954    	0           	                	;
 J-176           	786.7114    	0.08        	11              	;
 J-177           	813.5297    	2.017       	11              	;
 J-178           	808.4128    	1.012       	11              	;
 J-179           	737.4337    	1.647       	11              	;
 J-18            	736.9755    	0.815       	11              	;
 J-180           	736.4892    	1.008       	11              	;
 J-181           	718.0353    	2.247       	11              	;
 J-182           	726.0893    	1.502       	11              	;
 J-183           	726.3998    	1.695       	11              	;
 J-184           	739.991     	2.715       	11              	;
 J-185           	739.9926    	2.003       	11              	;
 J-186           	742.3264    	5.535       	11              	;
 J-187           	732.9801    	3.444       	11              	;
 J-188           	731.3691    	5.531       	11              	;
 J-189           	732.8687    	1.445       	11              	;
 J-19            	699.1559    	2.28        	11              	;
 J-190           	732.9894    	2.043       	11              	;
 J-191           	836.9303    	1.846       	11              	;
 J-192           	810.2168    	0.797       	11              	;
 J-193           	797.5074    	3.887       	11              	;
 J-194           	822.8643    	2.38        	11              	;
 J-195           	750.2874    	1.906       	11              	;
 J-196           	736.9515    	2.72        	11              	;
 J-197           	796.9903    	3.023       	11              	;
 J-198           	719.0818    	0.732       	11              	;
 J-199           	720.9912    	0.964       	11              	;
 J-2             	817.4826    	2.321       	11              	;
 J-20            	744.9952    	2.494       	11              	;
 J-200           	729.9212    	2.478       	11              	;
 J-201           	728.1095    	2.213       	11              	;
 J-202           	732.9061    	1.661       	11              	;
 J-203           	814.1368    	1.704       	11              	;
 J-204           	799.201     	1.142       	11              	;
 J-205           	705.126     	3.711       	11              	;
 J-206           	724.3729    	3.592       	11              	;
 J-207           	821.977     	1.757       	11              	;
 J-208           	715.2576    	4.582       	11              	;
 J-209           	835.9903    	2.786       	11              	;
 J-21            	721.3914    	4.689       	11              	;
 J-210           	833.4019    	2.838       	11              	;
 J-211           	804.9415    	0.358       	11              	;
 J-212           	840.6462    	2.386       	11              	;
 J-213           	701.652     	1.374       	11              	;
 J-214           	746.681     	0           	                	;
 J-215           	754.5698    	0           	                	;
 J-216           	737.9505    	2.496       	11              	;
 J-217           	736.9823    	1.23        	11              	;
 J-218           	744.9054    	2.027       	11              	;
 J-219           	804.0792    	2.102       	11              	;
 J-22            	700.8202    	1.668       	11              	;
 J-220           	744.7317    	6.045       	11              	;
 J-221           	751.6641    	1.934       	11              	;
 J-222           	727.0811    	3.117       	11              	;
 J-223           	720.0023    	3.417       	11              	;
 J-224           	823.0417    	2.158       	11              	;
 J-225           	721.7761    	4.626       	11              	;
 J-226           	819.6412    	0.76        	11              	;
 J-227           	708.2795    	1.967       	11              	;
 J-228           	824.8619    	1.598       	11              	;
 J-229           	822.0541    	0.774       	11              	;
 J-23            	737.4351    	1.743       	11              	;
 J-230           	805.7729    	0.81        	11              	;
 J-231           	838.846     	0.924       	11              	;
 J-232           	855.6082    	0.92        	11              	;
 J-233           	780.1453    	2.948       	11              	;
 J-234           	765.9719    	3.201       	11              	;
 J-235           	743.5352    	2.984       	11              	;
 J-236           	700.555     	1.533       	11              	;
 J-237           	811.0247    	0.406       	11              	;
 J-238           	808.7514    	0.293       	11              	;
 J-239           	700.9506    	0.417       	11              	;
 J-24            	746.9418    	1.26        	11              	;
 J-240           	785.228     	1.026       	11              	;
 J-241           	786.9038    	0.636       	11              	;
 J-242           	776.8031    	4.326       	11              	;
 J-243           	822.3188    	3.338       	11              	;
 J-244           	716.7099    	2.716       	11              	;
 J-245           	726.5146    	1.212       	11              	;
 J-246           	726.0574    	0.309       	11              	;
 J-247           	715.7799    	1.253       	11              	;
 J-248           	721.5587    	0           	                	;
 J-249           	780.0825    	0.675       	11              	;
 J-25            	713.8174    	1.614       	11              	;
 J-250           	811.2813    	4.446       	11              	;
 J-251           	818.3541    	1.526       	11              	;
 J-252           	808.0032    	1.905       	11              	;
 J-253           	807.4651    	2.17        	11              	;
 J-254           	814.3533    	0.576       	11              	;
 J-255           	723.7567    	0.617       	11              	;
 J-256           	720.7368    	2.911       	11              	;
 J-257           	836.6774    	0.995       	11              	;
 J-258           	839.015     	0.168       	11              	;
 J-259           	762.0689    	0           	                	;
 J-26            	718.2416    	1.913       	11              	;
 J-260           	713.6141    	1.397       	11              	;
 J-261           	762.5952    	1.933       	11              	;
 J-262           	732.6038    	0.764       	11              	;
 J-263           	728.0023    	0.714       	11              	;
 J-264           	816.8181    	3.452       	11              	;
 J-265           	839.8957    	0.491       	11              	;
 J-266           	805.7429    	1.949       	11              	;
 J-267           	820.637     	0.64        	11              	;
 J-268           	732.8879    	0.717       	11              	;
 J-269           	703.685     	4.771       	11              	;
 J-27            	769.8668    	1.568       	11              	;
 J-270           	832.7582    	1.222       	11              	;
 J-271           	705.7073    	1.211       	11              	;
 J-272           	704.9918    	0.803       	11              	;
 J-273           	720.7579    	0.092       	11              	;
 J-274           	842.0897    	7.444       	11              	;
 J-275           	842.0897    	4.73        	11              	;
 J-276           	721.6353    	2.436       	11              	;
 J-277           	824.1943    	0.873       	11              	;
 J-278           	805.6969    	1.81        	11              	;
 J-279           	719.8173    	0.985       	11              	;
 J-28            	796.0566    	1.572       	11              	;
 J-280           	715.3461    	0.394       	11              	;
 J-281           	823.9942    	1.065       	11              	;
 J-282           	718.1614    	2.602       	11              	;
 J-283           	732.9999    	2.839       	11              	;
 J-284           	730.4833    	3.314       	11              	;
 J-285           	716.547     	0.54        	11              	;
 J-286           	722.9866    	1.485       	11              	;
 J-287           	712.3181    	1.884       	11              	;
 J-288           	701.1172    	2.9         	11              	;
 J-289           	834.6046    	0.283       	11              	;
 J-29            	827.0575    	3.927       	11              	;
 J-290           	700.7875    	1.03        	11              	;
 J-291           	799.9569    	0.863       	11              	;
 J-292           	703.2575    	0.846       	11              	;
 J-293           	802.7549    	0.688       	11              	;
 J-294           	737.6999    	0.047       	11              	;
 J-295           	738.3455    	3.427       	11              	;
 J-296           	727.7387    	1.216       	11              	;
 J-297           	703.2002    	0.644       	11              	;
 J-298           	822.7627    	0.213       	11              	;
 J-299           	799.6611    	0.348       	11              	;
 J-3             	700.2754    	1.716       	11              	;
 J-30            	854.2734    	2.258       	11              	;
 J-300           	797.2427    	2.294       	11              	;
 J-301           	803.6575    	0.307       	11              	;
 J-302           	707.9738    	0.666       	11              	;
 J-303           	790.3464    	1.007       	11              	;
 J-304           	731.165     	0.142       	11              	;
 J-305           	784.0937    	2.073       	11              	;
 J-306           	820.2689    	2.326       	11              	;
 J-307           	825.8171    	1.919       	11              	;
 J-308           	823.5433    	0.458       	11              	;
 J-309           	804.7012    	0           	                	;
 J-31            	873.9128    	2.199       	11              	;
 J-310           	733.6459    	2.156       	11              	;
 J-311           	730.9911    	1.095       	11              	;
 J-312           	767.064     	2.733       	11              	;
 J-313           	814.4392    	1.04        	11              	;
 J-314           	719.4011    	2.87        	11              	;
 J-315           	805.8253    	1.019       	11              	;
 J-316           	841.957     	0.346       	11              	;
 J-317           	823.7988    	4.795       	11              	;
 J-318           	703.9791    	0.6         	11              	;
 J-319           	703.5555    	0.94        	11              	;
 J-32            	828.63      	1.559       	11              	;
 J-320           	739.1719    	1.745       	11              	;
 J-321           	832.4639    	0.406       	11              	;
 J-322           	720.8818    	1.895       	11              	;
 J-323           	825.9904    	0.75        	11              	;
 J-324           	711.146     	0.509       	11              	;
 J-325           	720.8879    	0.942       	11              	;
 J-326           	806.7472    	0.44        	11              	;
 J-327           	740.3771    	0.659       	11              	;
 J-328           	736.9698    	0.87        	11              	;
 J-329           	840.3738    	2.623       	11              	;
 J-33            	825.3884    	0.637       	11              	;
 J-330           	828.5745    	0.047       	11              	;
 J-331           	705.0208    	0.154       	11              	;
 J-332           	819.8542    	0.479       	11              	;
 J-333           	721.1528    	0.073       	11              	;
 J-334           	841.3723    	0.206       	11              	;
 J-335           	771.0303    	3.765       	11              	;
 J-336           	702.7543    	2.058       	11              	;
 J-337           	703.5408    	0.949       	11              	;
 J-338           	809.1177    	0.659       	11              	;
 J-339           	723.1497    	0.808       	11              	;
 J-34            	722.9923    	1.466       	11              	;
 J-340           	798.1874    	0           	                	;
 J-341           	796.9903    	0           	                	;
 J-342           	797.4256    	32.845      	11              	;
 J-343           	796.9903    	0           	                	;
 J-344           	801.4435    	0           	                	;
 J-345           	852.9761    	0           	                	;
 J-346           	847.3617    	0           	                	;
 J-347           	858.7726    	0           	                	;
 J-348           	855.9377    	0           	                	;
 J-349           	856.9358    	0           	                	;
 J-35            	728.9066    	1.285       	11              	;
 J-350           	876.9603    	0           	                	;
 J-351           	880.3098    	0           	                	;
 J-352           	838.8246    	0           	                	;
 J-353           	842.1368    	0           	                	;
 J-354           	827.7694    	0           	                	;
 J-355           	837.6611    	0           	                	;
 J-356           	813.6871    	0           	                	;
 J-357           	720.4287    	0           	                	;
 J-358           	768.9846    	0           	                	;
 J-359           	706.9181    	0           	                	;
 J-36            	844.7623    	2.731       	11              	;
 J-360           	826.9007    	0           	                	;
 J-361           	825.3608    	0           	                	;
 J-362           	808.0666    	0           	                	;
 J-363           	808.0666    	0           	                	;
 J-364           	808.0745    	0           	                	;
 J-365           	807.926     	0           	                	;
 J-368           	776.3999    	0           	                	;
 J-37            	839.1771    	2.912       	11              	;
 J-38            	848.5386    	3.786       	11              	;
 J-39            	819.6777    	0.896       	11              	;
 J-4             	730.7019    	1.214       	11              	;
 J-40            	812.6572    	1.109       	11              	;
 J-41            	832.2995    	2.791       	11              	;
 J-42            	813.0446    	1.496       	11              	;
 J-43            	790.4752    	3.67        	11              	;
 J-44            	744.9852    	3.238       	11              	;
 J-45            	736.9534    	0.724       	11              	;
 J-46            	733.6626    	1.166       	11              	;
 J-47            	733.5811    	1.317       	11              	;
 J-48            	706.9192    	2.775       	11              	;
 J-49            	706.3199    	2.363       	11              	;
 J-5             	857.6451    	3.288       	11              	;
 J-50            	816.774     	12.789      	11              	;
 J-51            	824.017     	2.029       	11              	;
 J-52            	816.5573    	1.447       	11              	;
 J-53            	828.5898    	0.386       	11              	;
 J-54            	797.1282    	2.199       	11              	;
 J-55            	819.4822    	4.601       	11              	;
 J-56            	705.9534    	2.966       	11              	;
 J-57            	733.8567    	2.121       	11              	;
 J-58            	733.8913    	0.372       	11              	;
 J-59            	825.8442    	2.026       	11              	;
 J-6             	852.8474    	4.556       	11              	;
 J-60            	800.9773    	1.618       	11              	;
 J-61            	737.672     	3.054       	11              	;
 J-62            	774.041     	2.88        	11              	;
 J-63            	814.9747    	1.657       	11              	;
 J-64            	841.5665    	2.243       	11              	;
 J-65            	763.8414    	3.506       	11              	;
 J-66            	805.7772    	2.597       	11              	;
 J-67            	820.7919    	1.879       	11              	;
 J-68            	809.6011    	2.074       	11              	;
 J-69            	746.8533    	3.029       	11              	;
 J-7             	797.4635    	0           	                	;
 J-70            	702.0076    	1.44        	11              	;
 J-71            	701.9949    	1.719       	11              	;
 J-72            	724.7742    	2.306       	11              	;
 J-73            	723.6992    	2.379       	11              	;
 J-74            	714.8643    	1.041       	11              	;
 J-75            	714.8759    	1.395       	11              	;
 J-76            	725.5305    	1.067       	11              	;
 J-77            	825.7806    	2.404       	11              	;
 J-78            	741.114     	2.16        	11              	;
 J-79            	794.7784    	2.759       	11              	;
 J-8             	719.1134    	0           	                	;
 J-80            	771.4455    	0.665       	11              	;
 J-81            	762.999     	3.283       	11              	;
 J-82            	719.2533    	1.634       	11              	;
 J-83            	703.0839    	0.786       	11              	;
 J-84            	746.4581    	3.058       	11              	;
 J-85            	808.1998    	3.12        	11              	;
 J-86            	706.8516    	1.149       	11              	;
 J-87            	721.5556    	2.57        	11              	;
 J-88            	777.6839    	3.759       	11              	;
 J-89            	815.1093    	2.567       	11              	;
 J-9             	816.3134    	6.815       	11              	;
 J-90            	737.3759    	1.013       	11              	;
 J-91            	778.5873    	2.54        	11              	;
 J-92            	701.6766    	2.936       	11              	;
 J-93            	707.9979    	2.617       	11              	;
 J-94            	812.9183    	0.358       	11              	;
 J-95            	818.6368    	1.984       	11              	;
 J-96            	715.2853    	0.908       	11              	;
 J-97            	737.7603    	1.47        	11              	;
 J-98            	790.8746    	1.955       	11              	;
 J-99            	715.3276    	0.796       	11              	;
 I-Pump-1        	833.5672    	0           	                	;
 I-Pump-2        	668.1938    	0           	                	;
 I-Pump-3        	704.1453    	0           	                	;
 O-Pump-4        	821.5734    	0           	                	;
 O-Pump-5        	812.2026    	0           	                	;
 O-Pump-6        	703.1908    	0           	                	;
 O-Pump-1        	833.5672    	0           	                	;
 O-Pump-2        	668.1938    	0           	                	;
 O-Pump-3        	704.1453    	0           	                	;
 I-Pump-4        	821.5734    	0           	                	;
 I-Pump-6        	703.1908    	0           	                	;

[RESERVOIRS]
;ID              	Head        	Pattern         
 R-1             	720         	                	;
 R-2             	900         	                	;
 R-3             	760         	                	;
 WTP             	775         	                	;

[TANKS]
;ID              	Elevation   	InitLevel   	MinLevel    	MaxLevel    	Diameter    	MinVol      	VolCurve
 T-1             	839.0317    	100.9683    	86.96826    	105.9683    	66.93       	0           	                	;
 T-2             	847.2754    	99.72461    	82.72461    	102.7246    	92.48       	0           	                	;
 T-3             	806.7986    	127.2014    	115.2014    	134.2014    	51.84       	0           	                	;

[PIPES]
;ID              	Node1           	Node2           	Length      	Diameter    	Roughness   	MinorLoss   	Status
 P-1             	J-355           	J-307           	736.09      	6           	125.2512    	0           	Open  	;
 P-10            	J-356           	J-1             	652.9       	8           	56.5312     	0           	Open  	;
 P-100           	J-48            	J-96            	463.109     	8           	56.5312     	0           	Open  	;
 P-101           	J-146           	J-147           	623.609     	6           	56.5312     	0           	Open  	;
 P-102           	J-70            	J-148           	476.779     	4           	56.5312     	0           	Open  	;
 P-103           	J-149           	J-99            	463.209     	10          	56.5312     	0           	Open  	;
 P-104           	J-76            	J-150           	287.959     	6           	56.5312     	0           	Open  	;
 P-105           	J-151           	J-152           	697.729     	16          	56.5312     	0           	Open  	;
 P-106           	J-47            	J-153           	381.01      	12          	56.5312     	0           	Open  	;
 P-107           	J-154           	J-155           	417         	6           	61.485      	0           	Open  	;
 P-108           	J-156           	J-157           	237.66      	4           	139.1138    	0           	Open  	;
 P-109           	J-66            	J-89            	479.2       	8           	79.2806     	0           	Open  	;
 P-11            	J-17            	J-18            	447.85      	8           	56.5312     	0           	Open  	;
 P-110           	J-158           	J-150           	22.29       	10          	56.5312     	0           	Open  	;
 P-111           	J-159           	J-160           	479.69      	10          	59.8674     	0           	Open  	;
 P-112           	J-157           	J-161           	338.329     	2           	137.4006    	0           	Open  	;
 P-113           	J-162           	J-163           	30.149      	6           	56.5312     	0           	Open  	;
 P-114           	J-157           	J-164           	444.48      	4           	139.1138    	0           	Open  	;
 P-115           	J-88            	J-65            	474.97      	6           	56.5312     	0           	Open  	;
 P-116           	J-165           	J-166           	743.549     	6           	56.5312     	0           	Open  	;
 P-117           	J-167           	J-50            	5655.68     	6           	59.8674     	0           	Open  	;
 P-118           	J-168           	J-169           	727.19      	2           	56.5312     	0           	Open  	;
 P-119           	J-170           	J-171           	45.29       	6           	61.485      	0           	Open  	;
 P-12            	J-19            	J-20            	2050.36     	10          	79.2806     	0           	Open  	;
 P-120           	J-172           	J-173           	94.379      	2           	61.485      	0           	Open  	;
 P-121           	J-174           	T-1             	510.35      	10          	59.8674     	0           	Open  	;
 P-122           	J-170           	J-172           	173.169     	2           	61.485      	0           	Open  	;
 P-123           	J-136           	J-176           	96.8        	10          	79.2806     	0           	Open  	;
 P-124           	J-177           	J-178           	732.909     	6           	59.8674     	0           	Open  	;
 P-125           	J-46            	J-179           	456.079     	12          	56.5312     	0           	Open  	;
 P-126           	J-180           	J-181           	155.46      	10          	79.2806     	0           	Open  	;
 P-127           	J-182           	J-183           	468.47      	8           	56.5312     	0           	Open  	;
 P-128           	J-156           	J-184           	631.21      	6           	137.4006    	0           	Open  	;
 P-129           	J-179           	J-97            	18.549      	6           	56.5312     	0           	Open  	;
 P-13            	J-21            	J-359           	204.63      	4           	56.5312     	0           	Open  	;
 P-130           	J-115           	J-162           	78.819      	16          	97.3697     	0           	Open  	;
 P-131           	J-185           	J-186           	229.149     	6           	56.5312     	0           	Open  	;
 P-132           	J-187           	J-188           	1185.469    	4           	79.2806     	0           	Open  	;
 P-133           	J-107           	J-43            	414.529     	6           	59.8674     	0           	Open  	;
 P-134           	J-189           	J-190           	565.989     	10          	79.2806     	0           	Open  	;
 P-135           	J-32            	J-191           	256.059     	4           	56.5312     	0           	Open  	;
 P-136           	J-35            	J-45            	447.029     	10          	56.5312     	0           	Open  	;
 P-137           	J-192           	J-139           	910.549     	10          	59.8674     	0           	Open  	;
 P-138           	J-193           	J-194           	358.619     	4           	137.4006    	0           	Open  	;
 P-139           	J-195           	J-72            	1615.8      	8           	79.2806     	0           	Open  	;
 P-14            	J-23            	J-24            	748.729     	6           	56.5312     	0           	Open  	;
 P-140           	J-196           	J-340           	1798.75     	12          	96.1445     	0           	Open  	;